# DDEC6 charges by PACMAN v1.1 (https://github.com/mtap-research/PACMAN-charge/)
data_0000[Co][nan]3[ASR]1
_chemical_formula_sum              "Co12 H112 C160 N40 O32"
_cell_length_a       11.104
_cell_length_b       19.8834
_cell_length_c       21.3025
_cell_angle_alpha    90
_cell_angle_beta     90
_cell_angle_gamma    90

_symmetry_space_group_name_H-M    "P 1"
_symmetry_Int_Tables_number       1

loop_
  _symmetry_equiv_pos_as_xyz
  'x, y, z'

loop_
  _atom_site_type_symbol
  _atom_site_label
  _atom_site_symmetry_multiplicity
  _atom_site_fract_x
  _atom_site_fract_y
  _atom_site_fract_z
  _atom_site_occupancy
  _atom_site_charge
Co  Co1       1.0  0.69405  0.46297  0.22352  1.0000 0.804442628
Co  Co2       1.0  0.80595  0.03703  0.22352  1.0000 0.804442628
Co  Co3       1.0  0.30595  0.96297  0.27648  1.0000 0.804442628
Co  Co4       1.0  0.19405  0.53703  0.27648  1.0000 0.804442628
Co  Co5       1.0  0.30595  0.53703  0.77648  1.0000 0.804442628
Co  Co6       1.0  0.19405  0.96297  0.77648  1.0000 0.804442628
Co  Co7       1.0  0.69405  0.03703  0.72352  1.0000 0.804442628
Co  Co8       1.0  0.80595  0.46297  0.72352  1.0000 0.804442628
Co  Co9       1.0  0.00000  0.50000  0.00000  1.0000 0.704446173
Co  Co10      1.0  0.50000  0.00000  0.00000  1.0000 0.7060681346
Co  Co11      1.0  0.00000  0.00000  0.50000  1.0000 0.7060681346
Co  Co12      1.0  0.50000  0.50000  0.50000  1.0000 0.704446173
H   H1        1.0  0.95430  0.34740  0.97090  1.0000 0.1091043079
H   H2        1.0  0.54570  0.15260  0.97090  1.0000 0.1091043079
H   H3        1.0  0.04570  0.84740  0.52910  1.0000 0.1091043079
H   H4        1.0  0.45430  0.65260  0.52910  1.0000 0.1091043079
H   H5        1.0  0.04570  0.65260  0.02910  1.0000 0.1091043079
H   H6        1.0  0.45430  0.84740  0.02910  1.0000 0.1091043079
H   H7        1.0  0.95430  0.15260  0.47090  1.0000 0.1091043079
H   H8        1.0  0.54570  0.34740  0.47090  1.0000 0.1091043079
H   H9        1.0  0.79190  0.58080  0.31070  1.0000 0.1091043079
H   H10       1.0  0.70810  0.91920  0.31070  1.0000 0.1091043079
H   H11       1.0  0.20810  0.08080  0.18930  1.0000 0.1091043079
H   H12       1.0  0.29190  0.41920  0.18930  1.0000 0.1091043079
H   H13       1.0  0.20810  0.41920  0.68930  1.0000 0.1091043079
H   H14       1.0  0.29190  0.08080  0.68930  1.0000 0.1091043079
H   H15       1.0  0.79190  0.91920  0.81070  1.0000 0.1091043079
H   H16       1.0  0.70810  0.58080  0.81070  1.0000 0.1091043079
H   H17       1.0  0.68360  0.58540  0.13510  1.0000 0.1091043079
H   H18       1.0  0.81640  0.91460  0.13510  1.0000 0.1091043079
H   H19       1.0  0.31640  0.08540  0.36490  1.0000 0.1091043079
H   H20       1.0  0.18360  0.41460  0.36490  1.0000 0.1091043079
H   H21       1.0  0.31640  0.41460  0.86490  1.0000 0.1091043079
H   H22       1.0  0.18360  0.08540  0.86490  1.0000 0.1091043079
H   H23       1.0  0.68360  0.91460  0.63510  1.0000 0.1091043079
H   H24       1.0  0.81640  0.58540  0.63510  1.0000 0.1091043079
H   H25       1.0  0.24380  0.44160  0.02900  1.0000 0.1091043079
H   H26       1.0  0.25620  0.05840  0.02900  1.0000 0.1091043079
H   H27       1.0  0.75620  0.94160  0.47100  1.0000 0.1091043079
H   H28       1.0  0.74380  0.55840  0.47100  1.0000 0.1091043079
H   H29       1.0  0.75620  0.55840  0.97100  1.0000 0.1091043079
H   H30       1.0  0.74380  0.94160  0.97100  1.0000 0.1091043079
H   H31       1.0  0.24380  0.05840  0.52900  1.0000 0.1091043079
H   H32       1.0  0.25620  0.44160  0.52900  1.0000 0.1091043079
H   H33       1.0  0.69210  0.70100  0.13340  1.0000 0.1210521977
H   H34       1.0  0.80790  0.79900  0.13340  1.0000 0.1210521977
H   H35       1.0  0.30790  0.20100  0.36660  1.0000 0.1210521977
H   H36       1.0  0.19210  0.29900  0.36660  1.0000 0.1210521977
H   H37       1.0  0.30790  0.29900  0.86660  1.0000 0.1210521977
H   H38       1.0  0.19210  0.20100  0.86660  1.0000 0.1210521977
H   H39       1.0  0.69210  0.79900  0.63340  1.0000 0.1210521977
H   H40       1.0  0.80790  0.70100  0.63340  1.0000 0.1210521977
H   H41       1.0  0.62590  0.34050  0.30750  1.0000 0.1006115244
H   H42       1.0  0.87410  0.15950  0.30750  1.0000 0.1006115244
H   H43       1.0  0.37410  0.84050  0.19250  1.0000 0.1006115244
H   H44       1.0  0.12590  0.65950  0.19250  1.0000 0.1006115244
H   H45       1.0  0.37410  0.65950  0.69250  1.0000 0.1006115244
H   H46       1.0  0.12590  0.84050  0.69250  1.0000 0.1006115244
H   H47       1.0  0.62590  0.15950  0.80750  1.0000 0.1006115244
H   H48       1.0  0.87410  0.34050  0.80750  1.0000 0.1006115244
H   H49       1.0  0.20600  0.55130  0.11490  1.0000 0.1210521977
H   H50       1.0  0.29400  0.94870  0.11490  1.0000 0.1210521977
H   H51       1.0  0.79400  0.05130  0.38510  1.0000 0.1210521977
H   H52       1.0  0.70600  0.44870  0.38510  1.0000 0.1210521977
H   H53       1.0  0.79400  0.44870  0.88510  1.0000 0.1210521977
H   H54       1.0  0.70600  0.05130  0.88510  1.0000 0.1210521977
H   H55       1.0  0.20600  0.94870  0.61490  1.0000 0.1210521977
H   H56       1.0  0.29400  0.55130  0.61490  1.0000 0.1210521977
H   H57       1.0  0.05330  0.24530  0.97080  1.0000 0.1290150049
H   H58       1.0  0.44670  0.25470  0.97080  1.0000 0.1290150049
H   H59       1.0  0.94670  0.74530  0.52920  1.0000 0.1290150049
H   H60       1.0  0.55330  0.75470  0.52920  1.0000 0.1290150049
H   H61       1.0  0.94670  0.75470  0.02920  1.0000 0.1290150049
H   H62       1.0  0.55330  0.74530  0.02920  1.0000 0.1290150049
H   H63       1.0  0.05330  0.25470  0.47080  1.0000 0.1290150049
H   H64       1.0  0.44670  0.24530  0.47080  1.0000 0.1290150049
H   H65       1.0  0.80330  0.69670  0.31390  1.0000 0.1210521977
H   H66       1.0  0.69670  0.80330  0.31390  1.0000 0.1210521977
H   H67       1.0  0.19670  0.19670  0.18610  1.0000 0.1210521977
H   H68       1.0  0.30330  0.30330  0.18610  1.0000 0.1210521977
H   H69       1.0  0.19670  0.30330  0.68610  1.0000 0.1210521977
H   H70       1.0  0.30330  0.19670  0.68610  1.0000 0.1210521977
H   H71       1.0  0.80330  0.80330  0.81390  1.0000 0.1210521977
H   H72       1.0  0.69670  0.69670  0.81390  1.0000 0.1210521977
H   H73       1.0  0.35290  0.34260  0.03080  1.0000 0.1290150049
H   H74       1.0  0.14710  0.15740  0.03080  1.0000 0.1290150049
H   H75       1.0  0.64710  0.84260  0.46920  1.0000 0.1290150049
H   H76       1.0  0.85290  0.65740  0.46920  1.0000 0.1290150049
H   H77       1.0  0.64710  0.65740  0.96920  1.0000 0.1290150049
H   H78       1.0  0.85290  0.84260  0.96920  1.0000 0.1290150049
H   H79       1.0  0.35290  0.15740  0.53080  1.0000 0.1290150049
H   H80       1.0  0.14710  0.34260  0.53080  1.0000 0.1290150049
H   H81       1.0  0.57070  0.22860  0.30250  1.0000 0.1290150049
H   H82       1.0  0.92930  0.27140  0.30250  1.0000 0.1290150049
H   H83       1.0  0.42930  0.72860  0.19750  1.0000 0.1290150049
H   H84       1.0  0.07070  0.77140  0.19750  1.0000 0.1290150049
H   H85       1.0  0.42930  0.77140  0.69750  1.0000 0.1290150049
H   H86       1.0  0.07070  0.72860  0.69750  1.0000 0.1290150049
H   H87       1.0  0.57070  0.27140  0.80250  1.0000 0.1290150049
H   H88       1.0  0.92930  0.22860  0.80250  1.0000 0.1290150049
H   H89       1.0  0.56940  0.24320  0.11420  1.0000 0.1210521977
H   H90       1.0  0.93060  0.25680  0.11420  1.0000 0.1210521977
H   H91       1.0  0.43060  0.74320  0.38580  1.0000 0.1210521977
H   H92       1.0  0.06940  0.75680  0.38580  1.0000 0.1210521977
H   H93       1.0  0.43060  0.75680  0.88580  1.0000 0.1210521977
H   H94       1.0  0.06940  0.74320  0.88580  1.0000 0.1210521977
H   H95       1.0  0.56940  0.25680  0.61420  1.0000 0.1210521977
H   H96       1.0  0.93060  0.24320  0.61420  1.0000 0.1210521977
H   H97       1.0  0.62620  0.35540  0.12410  1.0000 0.1091043079
H   H98       1.0  0.87380  0.14460  0.12410  1.0000 0.1091043079
H   H99       1.0  0.37380  0.85540  0.37590  1.0000 0.1091043079
H   H100      1.0  0.12620  0.64460  0.37590  1.0000 0.1091043079
H   H101      1.0  0.37380  0.64460  0.87590  1.0000 0.1091043079
H   H102      1.0  0.12620  0.85540  0.87590  1.0000 0.1091043079
H   H103      1.0  0.62620  0.14460  0.62410  1.0000 0.1091043079
H   H104      1.0  0.87380  0.35540  0.62410  1.0000 0.1091043079
H   H105      1.0  0.54520  0.17730  0.20470  1.0000 0.1210521977
H   H106      1.0  0.95480  0.32270  0.20470  1.0000 0.1210521977
H   H107      1.0  0.45480  0.67730  0.29530  1.0000 0.1210521977
H   H108      1.0  0.04520  0.82270  0.29530  1.0000 0.1210521977
H   H109      1.0  0.45480  0.82270  0.79530  1.0000 0.1210521977
H   H110      1.0  0.04520  0.67730  0.79530  1.0000 0.1210521977
H   H111      1.0  0.54520  0.32270  0.70470  1.0000 0.1210521977
H   H112      1.0  0.95480  0.17730  0.70470  1.0000 0.1210521977
C   C1        1.0  0.84340  0.46437  0.10307  1.0000 0.5503080103
C   C2        1.0  0.65660  0.03563  0.10307  1.0000 0.5503080103
C   C3        1.0  0.15660  0.96437  0.39693  1.0000 0.5503080103
C   C4        1.0  0.34340  0.53563  0.39693  1.0000 0.5503080103
C   C5        1.0  0.15660  0.53563  0.89693  1.0000 0.5503080103
C   C6        1.0  0.34340  0.96437  0.89693  1.0000 0.5503080103
C   C7        1.0  0.84340  0.03563  0.60307  1.0000 0.5503080103
C   C8        1.0  0.65660  0.46437  0.60307  1.0000 0.5503080103
C   C9        1.0  0.74710  0.71258  0.22423  1.0000 0.1006115244
C   C10       1.0  0.75290  0.78742  0.22423  1.0000 0.1006115244
C   C11       1.0  0.25290  0.21258  0.27577  1.0000 0.1006115244
C   C12       1.0  0.24710  0.28742  0.27577  1.0000 0.1006115244
C   C13       1.0  0.25290  0.28742  0.77577  1.0000 0.1006115244
C   C14       1.0  0.24710  0.21258  0.77577  1.0000 0.1006115244
C   C15       1.0  0.74710  0.78742  0.72423  1.0000 0.1006115244
C   C16       1.0  0.75290  0.71258  0.72423  1.0000 0.1006115244
C   C17       1.0  0.03660  0.34603  0.98317  1.0000 0.0825342953
C   C18       1.0  0.46340  0.15397  0.98317  1.0000 0.0825342953
C   C19       1.0  0.96340  0.84603  0.51683  1.0000 0.0825342953
C   C20       1.0  0.53660  0.65397  0.51683  1.0000 0.0825342953
C   C21       1.0  0.96340  0.65397  0.01683  1.0000 0.0825342953
C   C22       1.0  0.53660  0.84603  0.01683  1.0000 0.0825342953
C   C23       1.0  0.03660  0.15397  0.48317  1.0000 0.0825342953
C   C24       1.0  0.46340  0.34603  0.48317  1.0000 0.0825342953
C   C25       1.0  0.77120  0.60567  0.27411  1.0000 0.089516687
C   C26       1.0  0.72880  0.89433  0.27411  1.0000 0.089516687
C   C27       1.0  0.22880  0.10567  0.22589  1.0000 0.089516687
C   C28       1.0  0.27120  0.39433  0.22589  1.0000 0.089516687
C   C29       1.0  0.22880  0.39433  0.72589  1.0000 0.089516687
C   C30       1.0  0.27120  0.10567  0.72589  1.0000 0.089516687
C   C31       1.0  0.77120  0.89433  0.77411  1.0000 0.089516687
C   C32       1.0  0.72880  0.60567  0.77411  1.0000 0.089516687
C   C33       1.0  0.95610  0.48836  0.13278  1.0000 -0.0269326561
C   C34       1.0  0.54390  0.01164  0.13278  1.0000 -0.0269326561
C   C35       1.0  0.04390  0.98836  0.36722  1.0000 -0.0269326561
C   C36       1.0  0.45610  0.51164  0.36722  1.0000 -0.0269326561
C   C37       1.0  0.04390  0.51164  0.86722  1.0000 -0.0269326561
C   C38       1.0  0.45610  0.98836  0.86722  1.0000 -0.0269326561
C   C39       1.0  0.95610  0.01164  0.63278  1.0000 -0.0269326561
C   C40       1.0  0.54390  0.48836  0.63278  1.0000 -0.0269326561
C   C41       1.0  0.70830  0.60849  0.17200  1.0000 0.0825342953
C   C42       1.0  0.79170  0.89151  0.17200  1.0000 0.0825342953
C   C43       1.0  0.29170  0.10849  0.32800  1.0000 0.0825342953
C   C44       1.0  0.20830  0.39151  0.32800  1.0000 0.0825342953
C   C45       1.0  0.29170  0.39151  0.82800  1.0000 0.0825342953
C   C46       1.0  0.20830  0.10849  0.82800  1.0000 0.0825342953
C   C47       1.0  0.70830  0.89151  0.67200  1.0000 0.0825342953
C   C48       1.0  0.79170  0.60849  0.67200  1.0000 0.0825342953
C   C49       1.0  0.20520  0.40099  0.01700  1.0000 0.089516687
C   C50       1.0  0.29480  0.09901  0.01700  1.0000 0.089516687
C   C51       1.0  0.79480  0.90099  0.48300  1.0000 0.089516687
C   C52       1.0  0.70520  0.59901  0.48300  1.0000 0.089516687
C   C53       1.0  0.79480  0.59901  0.98300  1.0000 0.089516687
C   C54       1.0  0.70520  0.90099  0.98300  1.0000 0.089516687
C   C55       1.0  0.20520  0.09901  0.51700  1.0000 0.089516687
C   C56       1.0  0.29480  0.40099  0.51700  1.0000 0.089516687
C   C57       1.0  0.71260  0.67742  0.17064  1.0000 -0.1988508639
C   C58       1.0  0.78740  0.82258  0.17064  1.0000 -0.1988508639
C   C59       1.0  0.28740  0.17742  0.32936  1.0000 -0.1988508639
C   C60       1.0  0.21260  0.32258  0.32936  1.0000 -0.1988508639
C   C61       1.0  0.28740  0.32258  0.82936  1.0000 -0.1988508639
C   C62       1.0  0.21260  0.17742  0.82936  1.0000 -0.1988508639
C   C63       1.0  0.71260  0.82258  0.67064  1.0000 -0.1988508639
C   C64       1.0  0.78740  0.67742  0.67064  1.0000 -0.1988508639
C   C65       1.0  0.21660  0.28192  0.00020  1.0000 0.089516687
C   C66       1.0  0.28340  0.21808  0.00020  1.0000 0.089516687
C   C67       1.0  0.78340  0.78192  0.49980  1.0000 0.089516687
C   C68       1.0  0.71660  0.71808  0.49980  1.0000 0.089516687
C   C69       1.0  0.78340  0.71808  0.99980  1.0000 0.089516687
C   C70       1.0  0.71660  0.78192  0.99980  1.0000 0.089516687
C   C71       1.0  0.21660  0.21808  0.50020  1.0000 0.089516687
C   C72       1.0  0.28340  0.28192  0.50020  1.0000 0.089516687
C   C73       1.0  0.61560  0.32029  0.26745  1.0000 0.0615363976
C   C74       1.0  0.88440  0.17971  0.26745  1.0000 0.0615363976
C   C75       1.0  0.38440  0.82029  0.23255  1.0000 0.0615363976
C   C76       1.0  0.11560  0.67971  0.23255  1.0000 0.0615363976
C   C77       1.0  0.38440  0.67971  0.73255  1.0000 0.0615363976
C   C78       1.0  0.11560  0.82029  0.73255  1.0000 0.0615363976
C   C79       1.0  0.61560  0.17971  0.76745  1.0000 0.0615363976
C   C80       1.0  0.88440  0.32029  0.76745  1.0000 0.0615363976
C   C81       1.0  0.13300  0.53256  0.13024  1.0000 0.1431429598
C   C82       1.0  0.36700  0.96744  0.13024  1.0000 0.1431429598
C   C83       1.0  0.86700  0.03256  0.36976  1.0000 0.1431429598
C   C84       1.0  0.63300  0.46744  0.36976  1.0000 0.1431429598
C   C85       1.0  0.86700  0.46744  0.86976  1.0000 0.1431429598
C   C86       1.0  0.63300  0.03256  0.86976  1.0000 0.1431429598
C   C87       1.0  0.13300  0.96744  0.63024  1.0000 0.1431429598
C   C88       1.0  0.36700  0.53256  0.63024  1.0000 0.1431429598
C   C89       1.0  0.09500  0.28500  0.98277  1.0000 -0.2179627207
C   C90       1.0  0.40500  0.21500  0.98277  1.0000 -0.2179627207
C   C91       1.0  0.90500  0.78500  0.51723  1.0000 -0.2179627207
C   C92       1.0  0.59500  0.71500  0.51723  1.0000 -0.2179627207
C   C93       1.0  0.90500  0.71500  0.01723  1.0000 -0.2179627207
C   C94       1.0  0.59500  0.78500  0.01723  1.0000 -0.2179627207
C   C95       1.0  0.09500  0.21500  0.48277  1.0000 -0.2179627207
C   C96       1.0  0.40500  0.28500  0.48277  1.0000 -0.2179627207
C   C97       1.0  0.77780  0.67489  0.27654  1.0000 -0.1927792367
C   C98       1.0  0.72220  0.82511  0.27654  1.0000 -0.1927792367
C   C99       1.0  0.22220  0.17489  0.22346  1.0000 -0.1927792367
C   C100      1.0  0.27780  0.32511  0.22346  1.0000 -0.1927792367
C   C101      1.0  0.22220  0.32511  0.72346  1.0000 -0.1927792367
C   C102      1.0  0.27780  0.17489  0.72346  1.0000 -0.1927792367
C   C103      1.0  0.77780  0.82511  0.77654  1.0000 -0.1927792367
C   C104      1.0  0.72220  0.67489  0.77654  1.0000 -0.1927792367
C   C105      1.0  0.27090  0.34209  0.01803  1.0000 -0.2099892387
C   C106      1.0  0.22910  0.15791  0.01803  1.0000 -0.2099892387
C   C107      1.0  0.72910  0.84209  0.48197  1.0000 -0.2099892387
C   C108      1.0  0.77090  0.65791  0.48197  1.0000 -0.2099892387
C   C109      1.0  0.72910  0.65791  0.98197  1.0000 -0.2099892387
C   C110      1.0  0.77090  0.84209  0.98197  1.0000 -0.2099892387
C   C111      1.0  0.27090  0.15791  0.51803  1.0000 -0.2099892387
C   C112      1.0  0.22910  0.34209  0.51803  1.0000 -0.2099892387
C   C113      1.0  0.58240  0.25350  0.26490  1.0000 -0.1464120012
C   C114      1.0  0.91760  0.24650  0.26490  1.0000 -0.1464120012
C   C115      1.0  0.41760  0.75350  0.23510  1.0000 -0.1464120012
C   C116      1.0  0.08240  0.74650  0.23510  1.0000 -0.1464120012
C   C117      1.0  0.41760  0.74650  0.73510  1.0000 -0.1464120012
C   C118      1.0  0.08240  0.75350  0.73510  1.0000 -0.1464120012
C   C119      1.0  0.58240  0.24650  0.76490  1.0000 -0.1464120012
C   C120      1.0  0.91760  0.25350  0.76490  1.0000 -0.1464120012
C   C121      1.0  0.58180  0.26210  0.15460  1.0000 -0.1565495965
C   C122      1.0  0.91820  0.23790  0.15460  1.0000 -0.1565495965
C   C123      1.0  0.41820  0.76210  0.34540  1.0000 -0.1565495965
C   C124      1.0  0.08180  0.73790  0.34540  1.0000 -0.1565495965
C   C125      1.0  0.41820  0.73790  0.84540  1.0000 -0.1565495965
C   C126      1.0  0.08180  0.76210  0.84540  1.0000 -0.1565495965
C   C127      1.0  0.58180  0.23790  0.65460  1.0000 -0.1565495965
C   C128      1.0  0.91820  0.26210  0.65460  1.0000 -0.1565495965
C   C129      1.0  0.61570  0.32920  0.16099  1.0000 0.0825342953
C   C130      1.0  0.88430  0.17080  0.16099  1.0000 0.0825342953
C   C131      1.0  0.38430  0.82920  0.33901  1.0000 0.0825342953
C   C132      1.0  0.11570  0.67080  0.33901  1.0000 0.0825342953
C   C133      1.0  0.38430  0.67080  0.83901  1.0000 0.0825342953
C   C134      1.0  0.11570  0.82920  0.83901  1.0000 0.0825342953
C   C135      1.0  0.61570  0.17080  0.66099  1.0000 0.0825342953
C   C136      1.0  0.88430  0.32920  0.66099  1.0000 0.0825342953
C   C137      1.0  0.56630  0.22350  0.20770  1.0000 -0.0407320496
C   C138      1.0  0.93370  0.27650  0.20770  1.0000 -0.0407320496
C   C139      1.0  0.43370  0.72350  0.29230  1.0000 -0.0407320496
C   C140      1.0  0.06630  0.77650  0.29230  1.0000 -0.0407320496
C   C141      1.0  0.43370  0.77650  0.79230  1.0000 -0.0407320496
C   C142      1.0  0.06630  0.72350  0.79230  1.0000 -0.0407320496
C   C143      1.0  0.56630  0.27650  0.70770  1.0000 -0.0407320496
C   C144      1.0  0.93370  0.22350  0.70770  1.0000 -0.0407320496
C   C145      1.0  0.99740  0.49567  0.19412  1.0000 -0.0195673362
C   C146      1.0  0.50260  0.00433  0.19412  1.0000 -0.0195673362
C   C147      1.0  0.00260  0.99567  0.30588  1.0000 -0.0195673362
C   C148      1.0  0.49740  0.50433  0.30588  1.0000 -0.0195673362
C   C149      1.0  0.00260  0.50433  0.80588  1.0000 -0.0195673362
C   C150      1.0  0.49740  0.99567  0.80588  1.0000 -0.0195673362
C   C151      1.0  0.99740  0.00433  0.69412  1.0000 -0.0195673362
C   C152      1.0  0.50260  0.49567  0.69412  1.0000 -0.0195673362
C   C153      1.0  0.95450  0.47847  0.25811  1.0000 0.5446092251
C   C154      1.0  0.54550  0.02153  0.25811  1.0000 0.5446092251
C   C155      1.0  0.04550  0.97847  0.24189  1.0000 0.5446092251
C   C156      1.0  0.45450  0.52153  0.24189  1.0000 0.5446092251
C   C157      1.0  0.04550  0.52153  0.74189  1.0000 0.5446092251
C   C158      1.0  0.45450  0.97847  0.74189  1.0000 0.5446092251
C   C159      1.0  0.95450  0.02153  0.75811  1.0000 0.5446092251
C   C160      1.0  0.54550  0.47847  0.75811  1.0000 0.5446092251
N   N1        1.0  0.04340  0.51193  0.09282  1.0000 -0.3320800152
N   N2        1.0  0.45660  0.98807  0.09282  1.0000 -0.3320800152
N   N3        1.0  0.95660  0.01193  0.40718  1.0000 -0.3320800152
N   N4        1.0  0.54340  0.48807  0.40718  1.0000 -0.3320800152
N   N5        1.0  0.95660  0.48807  0.90718  1.0000 -0.3320800152
N   N6        1.0  0.54340  0.01193  0.90718  1.0000 -0.3320800152
N   N7        1.0  0.04340  0.98807  0.59282  1.0000 -0.3320800152
N   N8        1.0  0.45660  0.51193  0.59282  1.0000 -0.3320800152
N   N9        1.0  0.63400  0.35820  0.21639  1.0000 -0.2297229893
N   N10       1.0  0.86600  0.14180  0.21639  1.0000 -0.2297229893
N   N11       1.0  0.36600  0.85820  0.28361  1.0000 -0.2297229893
N   N12       1.0  0.13400  0.64180  0.28361  1.0000 -0.2297229893
N   N13       1.0  0.36600  0.64180  0.78361  1.0000 -0.2297229893
N   N14       1.0  0.13400  0.85820  0.78361  1.0000 -0.2297229893
N   N15       1.0  0.63400  0.14180  0.71639  1.0000 -0.2297229893
N   N16       1.0  0.86600  0.35820  0.71639  1.0000 -0.2297229893
N   N17       1.0  0.73740  0.57186  0.22295  1.0000 -0.2297229893
N   N18       1.0  0.76260  0.92814  0.22295  1.0000 -0.2297229893
N   N19       1.0  0.26260  0.07186  0.27705  1.0000 -0.2297229893
N   N20       1.0  0.23740  0.42814  0.27705  1.0000 -0.2297229893
N   N21       1.0  0.26260  0.42814  0.77705  1.0000 -0.2297229893
N   N22       1.0  0.23740  0.07186  0.77705  1.0000 -0.2297229893
N   N23       1.0  0.73740  0.92814  0.72295  1.0000 -0.2354716
N   N24       1.0  0.76260  0.57186  0.72295  1.0000 -0.2297229893
N   N25       1.0  0.08960  0.40326  0.99991  1.0000 -0.2099892387
N   N26       1.0  0.41040  0.09674  0.99991  1.0000 -0.2099892387
N   N27       1.0  0.91040  0.90326  0.50009  1.0000 -0.2099892387
N   N28       1.0  0.58960  0.59674  0.50009  1.0000 -0.2099892387
N   N29       1.0  0.91040  0.59674  0.00009  1.0000 -0.2099892387
N   N30       1.0  0.58960  0.90326  0.00009  1.0000 -0.2099892387
N   N31       1.0  0.08960  0.09674  0.49991  1.0000 -0.2099892387
N   N32       1.0  0.41040  0.40326  0.49991  1.0000 -0.2099892387
N   N33       1.0  0.10980  0.52414  0.19119  1.0000 -0.3453124848
N   N34       1.0  0.39020  0.97586  0.19119  1.0000 -0.3453124848
N   N35       1.0  0.89020  0.02414  0.30881  1.0000 -0.3453124848
N   N36       1.0  0.60980  0.47586  0.30881  1.0000 -0.3453124848
N   N37       1.0  0.89020  0.47586  0.80881  1.0000 -0.3453124848
N   N38       1.0  0.60980  0.02414  0.80881  1.0000 -0.3453124848
N   N39       1.0  0.10980  0.97586  0.69119  1.0000 -0.3453124848
N   N40       1.0  0.39020  0.52414  0.69119  1.0000 -0.3453124848
O   O1        1.0  0.84715  0.45761  0.04362  1.0000 -0.5385658306
O   O2        1.0  0.65285  0.04239  0.04362  1.0000 -0.5385658306
O   O3        1.0  0.15285  0.95761  0.45638  1.0000 -0.5385658306
O   O4        1.0  0.34715  0.54239  0.45638  1.0000 -0.5385658306
O   O5        1.0  0.15285  0.54239  0.95638  1.0000 -0.5385658306
O   O6        1.0  0.34715  0.95761  0.95638  1.0000 -0.5385658306
O   O7        1.0  0.84715  0.04239  0.54362  1.0000 -0.5385658306
O   O8        1.0  0.65285  0.45761  0.54362  1.0000 -0.5385658306
O   O9        1.0  0.85907  0.44416  0.26619  1.0000 -0.5630833891
O   O10       1.0  0.64093  0.05584  0.26619  1.0000 -0.5630833891
O   O11       1.0  0.14093  0.94416  0.23381  1.0000 -0.5630833891
O   O12       1.0  0.35907  0.55584  0.23381  1.0000 -0.5630833891
O   O13       1.0  0.14093  0.55584  0.73381  1.0000 -0.5630833891
O   O14       1.0  0.35907  0.94416  0.73381  1.0000 -0.5630833891
O   O15       1.0  0.85907  0.05584  0.76619  1.0000 -0.5630833891
O   O16       1.0  0.64093  0.44416  0.76619  1.0000 -0.5630833891
O   O17       1.0  0.74928  0.45318  0.13352  1.0000 -0.527424812
O   O18       1.0  0.75072  0.04682  0.13352  1.0000 -0.527424812
O   O19       1.0  0.25072  0.95318  0.36648  1.0000 -0.527424812
O   O20       1.0  0.24928  0.54682  0.36648  1.0000 -0.527424812
O   O21       1.0  0.25072  0.54682  0.86648  1.0000 -0.527424812
O   O22       1.0  0.24928  0.95318  0.86648  1.0000 -0.527424812
O   O23       1.0  0.74928  0.04682  0.63352  1.0000 -0.527424812
O   O24       1.0  0.75072  0.45318  0.63352  1.0000 -0.527424812
O   O25       1.0  0.01911  0.49902  0.30279  1.0000 -0.5248254773
O   O26       1.0  0.48089  0.00098  0.30279  1.0000 -0.5248254773
O   O27       1.0  0.98089  0.99902  0.19721  1.0000 -0.527424812
O   O28       1.0  0.51911  0.50098  0.19721  1.0000 -0.5248254773
O   O29       1.0  0.98089  0.50098  0.69721  1.0000 -0.5248254773
O   O30       1.0  0.51911  0.99902  0.69721  1.0000 -0.527424812
O   O31       1.0  0.01911  0.00098  0.80279  1.0000 -0.5248254773
O   O32       1.0  0.48089  0.49902  0.80279  1.0000 -0.5248254773
