# DDEC6 charges by PACMAN v1.1 (https://github.com/mtap-research/PACMAN-charge/)
data_2004[Mn][dia]3[ASR]3
_chemical_formula_sum              "Mn12 H24 C24 O48"
_cell_length_a       11.519
_cell_length_b       10.005
_cell_length_c       18.685
_cell_angle_alpha    90
_cell_angle_beta     126.821
_cell_angle_gamma    90

_symmetry_space_group_name_H-M    "P 1"
_symmetry_Int_Tables_number       1

loop_
  _symmetry_equiv_pos_as_xyz
  'x, y, z'

loop_
  _atom_site_type_symbol
  _atom_site_label
  _atom_site_symmetry_multiplicity
  _atom_site_fract_x
  _atom_site_fract_y
  _atom_site_fract_z
  _atom_site_occupancy
  _atom_site_charge
Mn  Mn1       1.0  0.62463  0.91411  0.86839  1.0000 0.970594209
Mn  Mn2       1.0  0.62463  0.58589  0.36839  1.0000 0.970594209
Mn  Mn3       1.0  0.37537  0.08589  0.13161  1.0000 0.970594209
Mn  Mn4       1.0  0.37537  0.41411  0.63161  1.0000 0.970594209
Mn  Mn5       1.0  0.42097  0.09713  0.68515  1.0000 0.9800723608
Mn  Mn6       1.0  0.42097  0.40287  0.18515  1.0000 0.9800723608
Mn  Mn7       1.0  0.57903  0.90287  0.31485  1.0000 0.9800723608
Mn  Mn8       1.0  0.57903  0.59713  0.81485  1.0000 0.9800723608
Mn  Mn9       1.0  0.50000  0.00000  0.00000  1.0000 0.9977283096
Mn  Mn10      1.0  0.50000  0.50000  0.50000  1.0000 0.9946335967
Mn  Mn11      1.0  0.00000  0.00000  0.00000  1.0000 0.9977283096
Mn  Mn12      1.0  0.00000  0.50000  0.50000  1.0000 0.9977283096
H   H1        1.0  0.50400  0.74600  0.63600  1.0000 0.08331373
H   H2        1.0  0.50400  0.75400  0.13600  1.0000 0.08331373
H   H3        1.0  0.49600  0.25400  0.36400  1.0000 0.0921684613
H   H4        1.0  0.49600  0.24600  0.86400  1.0000 0.08331373
H   H5        1.0  0.20700  0.02600  0.73550  1.0000 0.0921684613
H   H6        1.0  0.20700  0.47400  0.23550  1.0000 0.0921684613
H   H7        1.0  0.79300  0.97400  0.26450  1.0000 0.0921684613
H   H8        1.0  0.79300  0.52600  0.76450  1.0000 0.0921684613
H   H9        1.0  0.50600  0.61100  0.95430  1.0000 0.08331373
H   H10       1.0  0.50600  0.88900  0.45430  1.0000 0.08331373
H   H11       1.0  0.49400  0.38900  0.04570  1.0000 0.08331373
H   H12       1.0  0.49400  0.11100  0.54570  1.0000 0.08331373
H   H13       1.0  0.74200  0.19500  0.76900  1.0000 0.08331373
H   H14       1.0  0.74200  0.30500  0.26900  1.0000 0.08331373
H   H15       1.0  0.25800  0.80500  0.23100  1.0000 0.08331373
H   H16       1.0  0.25800  0.69500  0.73100  1.0000 0.08331373
H   H17       1.0  0.76200  0.16300  0.06500  1.0000 0.0921684613
H   H18       1.0  0.76200  0.33700  0.56500  1.0000 0.0921684613
H   H19       1.0  0.23800  0.83700  0.93500  1.0000 0.0921684613
H   H20       1.0  0.23800  0.66300  0.43500  1.0000 0.0921684613
H   H21       1.0  0.98600  0.70100  0.99550  1.0000 0.0921684613
H   H22       1.0  0.98600  0.79900  0.49550  1.0000 0.0921684613
H   H23       1.0  0.01400  0.29900  0.00450  1.0000 0.0921684613
H   H24       1.0  0.01400  0.20100  0.50450  1.0000 0.0921684613
C   C1        1.0  0.50800  0.81690  0.67180  1.0000 0.4835673649
C   C2        1.0  0.50800  0.68310  0.17180  1.0000 0.4835673649
C   C3        1.0  0.49200  0.18310  0.32820  1.0000 0.4835673649
C   C4        1.0  0.49200  0.31690  0.82820  1.0000 0.4835673649
C   C5        1.0  0.30170  0.00790  0.78884  1.0000 0.4589704812
C   C6        1.0  0.30170  0.49210  0.28884  1.0000 0.4589704812
C   C7        1.0  0.69830  0.99210  0.21116  1.0000 0.4589704812
C   C8        1.0  0.69830  0.50790  0.71116  1.0000 0.4589704812
C   C9        1.0  0.52100  0.70550  0.94768  1.0000 0.4589704812
C   C10       1.0  0.52100  0.79450  0.44768  1.0000 0.4589704812
C   C11       1.0  0.47900  0.29450  0.05232  1.0000 0.4589704812
C   C12       1.0  0.47900  0.20550  0.55232  1.0000 0.4589704812
C   C13       1.0  0.76270  0.12840  0.81341  1.0000 0.4589704812
C   C14       1.0  0.76270  0.37160  0.31341  1.0000 0.4589704812
C   C15       1.0  0.23730  0.87160  0.18659  1.0000 0.4589704812
C   C16       1.0  0.23730  0.62840  0.68659  1.0000 0.4589704812
C   C17       1.0  0.77110  0.10810  0.02888  1.0000 0.4835673649
C   C18       1.0  0.77110  0.39190  0.52888  1.0000 0.4835673649
C   C19       1.0  0.22890  0.89190  0.97112  1.0000 0.4835673649
C   C20       1.0  0.22890  0.60810  0.47112  1.0000 0.4835673649
C   C21       1.0  0.88370  0.71440  0.95158  1.0000 0.4860383686
C   C22       1.0  0.88370  0.78560  0.45158  1.0000 0.4860383686
C   C23       1.0  0.11630  0.28560  0.04842  1.0000 0.4860383686
C   C24       1.0  0.11630  0.21440  0.54842  1.0000 0.4860383686
O   O1        1.0  0.56713  0.79148  0.75365  1.0000 -0.5573418711
O   O2        1.0  0.56713  0.70852  0.25365  1.0000 -0.5573418711
O   O3        1.0  0.43287  0.20852  0.24635  1.0000 -0.5573418711
O   O4        1.0  0.43287  0.29148  0.74635  1.0000 -0.5573418711
O   O5        1.0  0.44810  0.92286  0.63229  1.0000 -0.4993533556
O   O6        1.0  0.44810  0.57714  0.13229  1.0000 -0.4993533556
O   O7        1.0  0.55190  0.07714  0.36771  1.0000 -0.4993533556
O   O8        1.0  0.55190  0.42286  0.86771  1.0000 -0.4993533556
O   O9        1.0  0.40298  0.99500  0.78015  1.0000 -0.5573418711
O   O10       1.0  0.40298  0.50500  0.28015  1.0000 -0.5573418711
O   O11       1.0  0.59702  0.00500  0.21985  1.0000 -0.5573418711
O   O12       1.0  0.59702  0.49500  0.71985  1.0000 -0.5573418711
O   O13       1.0  0.31630  0.00206  0.85956  1.0000 -0.4948190932
O   O14       1.0  0.31630  0.49794  0.35956  1.0000 -0.4948190932
O   O15       1.0  0.68370  0.99794  0.14044  1.0000 -0.4993533556
O   O16       1.0  0.68370  0.50206  0.64044  1.0000 -0.4948190932
O   O17       1.0  0.54301  0.73392  0.89047  1.0000 -0.5573418711
O   O18       1.0  0.54301  0.76608  0.39047  1.0000 -0.5573418711
O   O19       1.0  0.45699  0.26608  0.10953  1.0000 -0.5573418711
O   O20       1.0  0.45699  0.23392  0.60953  1.0000 -0.5573418711
O   O21       1.0  0.51200  0.78527  0.99446  1.0000 -0.4993533556
O   O22       1.0  0.51200  0.71473  0.49446  1.0000 -0.4993533556
O   O23       1.0  0.48800  0.21473  0.00554  1.0000 -0.4993533556
O   O24       1.0  0.48800  0.28527  0.50554  1.0000 -0.4993533556
O   O25       1.0  0.65193  0.07764  0.80305  1.0000 -0.5573418711
O   O26       1.0  0.65193  0.42236  0.30305  1.0000 -0.5573418711
O   O27       1.0  0.34807  0.92236  0.19695  1.0000 -0.5573418711
O   O28       1.0  0.34807  0.57764  0.69695  1.0000 -0.5573418711
O   O29       1.0  0.89000  0.10551  0.87428  1.0000 -0.482179958
O   O30       1.0  0.89000  0.39449  0.37428  1.0000 -0.482179958
O   O31       1.0  0.11000  0.89449  0.12572  1.0000 -0.482179958
O   O32       1.0  0.11000  0.60551  0.62572  1.0000 -0.482179958
O   O33       1.0  0.66398  0.03015  0.97749  1.0000 -0.5573418711
O   O34       1.0  0.66398  0.46985  0.47749  1.0000 -0.5573418711
O   O35       1.0  0.33602  0.96985  0.02251  1.0000 -0.5573418711
O   O36       1.0  0.33602  0.53015  0.52251  1.0000 -0.5573418711
O   O37       1.0  0.88270  0.11568  0.03452  1.0000 -0.4993533556
O   O38       1.0  0.88270  0.38432  0.53452  1.0000 -0.4948190932
O   O39       1.0  0.11730  0.88432  0.96548  1.0000 -0.4993533556
O   O40       1.0  0.11730  0.61568  0.46548  1.0000 -0.4948190932
O   O41       1.0  0.84183  0.83505  0.94223  1.0000 -0.5463777367
O   O42       1.0  0.84183  0.66495  0.44223  1.0000 -0.5463777367
O   O43       1.0  0.15817  0.16495  0.05777  1.0000 -0.5463777367
O   O44       1.0  0.15817  0.33505  0.55777  1.0000 -0.5463777367
O   O45       1.0  0.80649  0.61635  0.90985  1.0000 -0.4993533556
O   O46       1.0  0.80649  0.88365  0.40985  1.0000 -0.4993533556
O   O47       1.0  0.19351  0.38365  0.09015  1.0000 -0.4993533556
O   O48       1.0  0.19351  0.11635  0.59015  1.0000 -0.4993533556
