# DDEC6 charges by PACMAN v1.1 (https://github.com/mtap-research/PACMAN-charge/)
data_2004[Mn][dia]3[ASR]4
_chemical_formula_sum              "Mn12 H24 C24 O48"
_cell_length_a       11.6548
_cell_length_b       10.1617
_cell_length_c       19.042
_cell_angle_alpha    90
_cell_angle_beta     126.58
_cell_angle_gamma    90

_symmetry_space_group_name_H-M    "P 1"
_symmetry_Int_Tables_number       1

loop_
  _symmetry_equiv_pos_as_xyz
  'x, y, z'

loop_
  _atom_site_type_symbol
  _atom_site_label
  _atom_site_symmetry_multiplicity
  _atom_site_fract_x
  _atom_site_fract_y
  _atom_site_fract_z
  _atom_site_occupancy
  _atom_site_charge
Mn  Mn1       1.0  0.62339  0.92207  0.86816  1.0000 0.9857157224
Mn  Mn2       1.0  0.37661  0.42207  0.63184  1.0000 0.9843327584
Mn  Mn3       1.0  0.37661  0.07793  0.13184  1.0000 0.9843327584
Mn  Mn4       1.0  0.62339  0.57793  0.36816  1.0000 0.9843327584
Mn  Mn5       1.0  0.42988  0.11043  0.69145  1.0000 0.9843327584
Mn  Mn6       1.0  0.57012  0.61043  0.80855  1.0000 0.9843327584
Mn  Mn7       1.0  0.57012  0.88957  0.30855  1.0000 0.9843327584
Mn  Mn8       1.0  0.42988  0.38957  0.19145  1.0000 0.9843327584
Mn  Mn9       1.0  0.50000  0.00000  0.00000  1.0000 1.003516888
Mn  Mn10      1.0  0.50000  0.50000  0.50000  1.0000 1.003516888
Mn  Mn11      1.0  0.00000  0.00000  0.00000  1.0000 1.003516888
Mn  Mn12      1.0  0.00000  0.50000  0.50000  1.0000 1.003516888
H   H1        1.0  0.50400  0.75500  0.63680  1.0000 0.0641764828
H   H2        1.0  0.49600  0.25500  0.86320  1.0000 0.0641764828
H   H3        1.0  0.49600  0.24500  0.36320  1.0000 0.0641764828
H   H4        1.0  0.50400  0.74500  0.13680  1.0000 0.0641764828
H   H5        1.0  0.21100  0.04700  0.73800  1.0000 0.0710076687
H   H6        1.0  0.78900  0.54700  0.76200  1.0000 0.0710076687
H   H7        1.0  0.78900  0.95300  0.26200  1.0000 0.0710076687
H   H8        1.0  0.21100  0.45300  0.23800  1.0000 0.0710076687
H   H9        1.0  0.46800  0.62100  0.92910  1.0000 0.0798574813
H   H10       1.0  0.53200  0.12100  0.57090  1.0000 0.0798574813
H   H11       1.0  0.53200  0.37900  0.07090  1.0000 0.0798574813
H   H12       1.0  0.46800  0.87900  0.42910  1.0000 0.0798574813
H   H13       1.0  0.74300  0.22400  0.78770  1.0000 0.0798574813
H   H14       1.0  0.25700  0.72400  0.71230  1.0000 0.0798574813
H   H15       1.0  0.25700  0.77600  0.21230  1.0000 0.0798574813
H   H16       1.0  0.74300  0.27600  0.28770  1.0000 0.0798574813
H   H17       1.0  0.77200  0.14200  0.07960  1.0000 0.0710076687
H   H18       1.0  0.22800  0.64200  0.42040  1.0000 0.0710076687
H   H19       1.0  0.22800  0.85800  0.92040  1.0000 0.0710076687
H   H20       1.0  0.77200  0.35800  0.57960  1.0000 0.0710076687
H   H21       1.0  0.97800  0.71200  0.97110  1.0000 0.0884628815
H   H22       1.0  0.02200  0.21200  0.52890  1.0000 0.0884628815
H   H23       1.0  0.02200  0.28800  0.02890  1.0000 0.0884628815
H   H24       1.0  0.97800  0.78800  0.47110  1.0000 0.0884628815
C   C1        1.0  0.50420  0.83190  0.67276  1.0000 0.4800387717
C   C2        1.0  0.49580  0.33190  0.82724  1.0000 0.4800387717
C   C3        1.0  0.49580  0.16810  0.32724  1.0000 0.4800387717
C   C4        1.0  0.50420  0.66810  0.17276  1.0000 0.4800387717
C   C5        1.0  0.31130  0.02520  0.79304  1.0000 0.4702067428
C   C6        1.0  0.68870  0.52520  0.70696  1.0000 0.4702067428
C   C7        1.0  0.68870  0.97480  0.20696  1.0000 0.4702067428
C   C8        1.0  0.31130  0.47480  0.29304  1.0000 0.4702067428
C   C9        1.0  0.50040  0.71330  0.93444  1.0000 0.4800387717
C   C10       1.0  0.49960  0.21330  0.56556  1.0000 0.4702067428
C   C11       1.0  0.49960  0.28670  0.06556  1.0000 0.4800387717
C   C12       1.0  0.50040  0.78670  0.43444  1.0000 0.4800387717
C   C13       1.0  0.76380  0.15110  0.82664  1.0000 0.4702067428
C   C14       1.0  0.23620  0.65110  0.67336  1.0000 0.4702067428
C   C15       1.0  0.23620  0.84890  0.17336  1.0000 0.4702067428
C   C16       1.0  0.76380  0.34890  0.32664  1.0000 0.4702067428
C   C17       1.0  0.77860  0.08980  0.03756  1.0000 0.4863575452
C   C18       1.0  0.22140  0.58980  0.46244  1.0000 0.4863575452
C   C19       1.0  0.22140  0.91020  0.96244  1.0000 0.4863575452
C   C20       1.0  0.77860  0.41020  0.53756  1.0000 0.4863575452
C   C21       1.0  0.87570  0.72600  0.93638  1.0000 0.4953976923
C   C22       1.0  0.12430  0.22600  0.56362  1.0000 0.4953976923
C   C23       1.0  0.12430  0.27400  0.06362  1.0000 0.4953976923
C   C24       1.0  0.87570  0.77400  0.43638  1.0000 0.4953976923
O   O1        1.0  0.56237  0.80368  0.75264  1.0000 -0.5567989732
O   O2        1.0  0.43763  0.30368  0.74736  1.0000 -0.5567989732
O   O3        1.0  0.43763  0.19632  0.24736  1.0000 -0.5567989732
O   O4        1.0  0.56237  0.69632  0.25264  1.0000 -0.5567989732
O   O5        1.0  0.45305  0.94029  0.63763  1.0000 -0.4985378838
O   O6        1.0  0.54695  0.44029  0.86237  1.0000 -0.4985378838
O   O7        1.0  0.54695  0.05971  0.36237  1.0000 -0.4985378838
O   O8        1.0  0.45305  0.55971  0.13763  1.0000 -0.4985378838
O   O9        1.0  0.40953  0.00774  0.78372  1.0000 -0.5567989732
O   O10       1.0  0.59047  0.50774  0.71628  1.0000 -0.5567989732
O   O11       1.0  0.59047  0.99226  0.21628  1.0000 -0.5567989732
O   O12       1.0  0.40953  0.49226  0.28372  1.0000 -0.5567989732
O   O13       1.0  0.32601  0.01977  0.86279  1.0000 -0.4985378838
O   O14       1.0  0.67399  0.51977  0.63721  1.0000 -0.4985378838
O   O15       1.0  0.67399  0.98023  0.13721  1.0000 -0.4985378838
O   O16       1.0  0.32601  0.48023  0.36279  1.0000 -0.4985378838
O   O17       1.0  0.53762  0.74321  0.88532  1.0000 -0.5567989732
O   O18       1.0  0.46238  0.24321  0.61468  1.0000 -0.5567989732
O   O19       1.0  0.46238  0.25679  0.11468  1.0000 -0.5567989732
O   O20       1.0  0.53762  0.75679  0.38532  1.0000 -0.5567989732
O   O21       1.0  0.49265  0.78957  0.98176  1.0000 -0.4985378838
O   O22       1.0  0.50735  0.28957  0.51824  1.0000 -0.4985378838
O   O23       1.0  0.50735  0.21043  0.01824  1.0000 -0.4985378838
O   O24       1.0  0.49265  0.71043  0.48176  1.0000 -0.4985378838
O   O25       1.0  0.65506  0.08754  0.80848  1.0000 -0.5538833642
O   O26       1.0  0.34494  0.58754  0.69152  1.0000 -0.5538833642
O   O27       1.0  0.34494  0.91246  0.19152  1.0000 -0.5567989732
O   O28       1.0  0.65506  0.41246  0.30848  1.0000 -0.5538833642
O   O29       1.0  0.88970  0.12904  0.88824  1.0000 -0.4921704328
O   O30       1.0  0.11030  0.62904  0.61176  1.0000 -0.4921704328
O   O31       1.0  0.11030  0.87096  0.11176  1.0000 -0.4921704328
O   O32       1.0  0.88970  0.37096  0.38824  1.0000 -0.4921704328
O   O33       1.0  0.66753  0.02258  0.98093  1.0000 -0.5538833642
O   O34       1.0  0.33247  0.52258  0.51907  1.0000 -0.5538833642
O   O35       1.0  0.33247  0.97742  0.01907  1.0000 -0.5538833642
O   O36       1.0  0.66753  0.47742  0.48093  1.0000 -0.5538833642
O   O37       1.0  0.88987  0.09620  0.04377  1.0000 -0.4985378838
O   O38       1.0  0.11013  0.59620  0.45623  1.0000 -0.4985378838
O   O39       1.0  0.11013  0.90380  0.95623  1.0000 -0.4985378838
O   O40       1.0  0.88987  0.40380  0.54377  1.0000 -0.4985378838
O   O41       1.0  0.83676  0.84397  0.93366  1.0000 -0.5429336674
O   O42       1.0  0.16324  0.34397  0.56634  1.0000 -0.5429336674
O   O43       1.0  0.16324  0.15603  0.06634  1.0000 -0.5429336674
O   O44       1.0  0.83676  0.65603  0.43366  1.0000 -0.5429336674
O   O45       1.0  0.79663  0.62987  0.89835  1.0000 -0.4985378838
O   O46       1.0  0.20337  0.12987  0.60165  1.0000 -0.4985378838
O   O47       1.0  0.20337  0.37013  0.10165  1.0000 -0.4985378838
O   O48       1.0  0.79663  0.87013  0.39835  1.0000 -0.4985378838
