# DDEC6 charges by PACMAN v1.1 (https://github.com/mtap-research/PACMAN-charge/)
data_2011[Zn][sra]3[ASR]1
_chemical_formula_sum              "Zn8 H72 C120 O40"
_cell_length_a       9.3243
_cell_length_b       26.939
_cell_length_c       14.4535
_cell_angle_alpha    90
_cell_angle_beta     93.068
_cell_angle_gamma    90

_symmetry_space_group_name_H-M    "P 1"
_symmetry_Int_Tables_number       1

loop_
  _symmetry_equiv_pos_as_xyz
  'x, y, z'

loop_
  _atom_site_type_symbol
  _atom_site_label
  _atom_site_symmetry_multiplicity
  _atom_site_fract_x
  _atom_site_fract_y
  _atom_site_fract_z
  _atom_site_occupancy
  _atom_site_charge
Zn  Zn1       1.0  0.64765  0.32096  0.12181  1.0000 0.9762635274
Zn  Zn2       1.0  0.35235  0.82096  0.37819  1.0000 0.9762635274
Zn  Zn3       1.0  0.35235  0.67904  0.87819  1.0000 0.9762635274
Zn  Zn4       1.0  0.64765  0.17904  0.62181  1.0000 0.9762635274
Zn  Zn5       1.0  0.96767  0.37960  0.11193  1.0000 0.9273594363
Zn  Zn6       1.0  0.03233  0.87960  0.38807  1.0000 0.9273594363
Zn  Zn7       1.0  0.03233  0.62040  0.88807  1.0000 0.9273594363
Zn  Zn8       1.0  0.96767  0.12040  0.61193  1.0000 0.9273594363
H   H1        1.0  0.10410  0.36490  0.34720  1.0000 0.1336244537
H   H2        1.0  0.89590  0.86490  0.15280  1.0000 0.1336244537
H   H3        1.0  0.89590  0.63510  0.65280  1.0000 0.1336244537
H   H4        1.0  0.10410  0.13510  0.84720  1.0000 0.1336244537
H   H5        1.0  0.16080  0.26920  0.56070  1.0000 0.1475850461
H   H6        1.0  0.83920  0.76920  0.93930  1.0000 0.1475850461
H   H7        1.0  0.83920  0.73080  0.43930  1.0000 0.1475850461
H   H8        1.0  0.16080  0.23080  0.06070  1.0000 0.1475850461
H   H9        1.0  0.80780  0.26030  0.38800  1.0000 0.1371094031
H   H10       1.0  0.19220  0.76030  0.11200  1.0000 0.1371094031
H   H11       1.0  0.19220  0.73970  0.61200  1.0000 0.1371094031
H   H12       1.0  0.80780  0.23970  0.88800  1.0000 0.1371094031
H   H13       1.0  0.33670  0.37180  0.37210  1.0000 0.1202300675
H   H14       1.0  0.66330  0.87180  0.12790  1.0000 0.1202300675
H   H15       1.0  0.66330  0.62820  0.62790  1.0000 0.1202300675
H   H16       1.0  0.33670  0.12820  0.87210  1.0000 0.1202300675
H   H17       1.0  0.25980  0.40960  0.43630  1.0000 0.1102439217
H   H18       1.0  0.74020  0.90960  0.06370  1.0000 0.1102439217
H   H19       1.0  0.74020  0.59040  0.56370  1.0000 0.1102439217
H   H20       1.0  0.25980  0.09040  0.93630  1.0000 0.1102439217
H   H21       1.0  0.60310  0.36120  0.39440  1.0000 0.1202300675
H   H22       1.0  0.39690  0.86120  0.10560  1.0000 0.1202300675
H   H23       1.0  0.39690  0.63880  0.60560  1.0000 0.1202300675
H   H24       1.0  0.60310  0.13880  0.89440  1.0000 0.1202300675
H   H25       1.0  0.81390  0.38940  0.46500  1.0000 0.1102439217
H   H26       1.0  0.18610  0.88940  0.03500  1.0000 0.1102439217
H   H27       1.0  0.18610  0.61060  0.53500  1.0000 0.1102439217
H   H28       1.0  0.81390  0.11060  0.96500  1.0000 0.1102439217
H   H29       1.0  0.60710  0.46760  0.65240  1.0000 0.1102439217
H   H30       1.0  0.39290  0.96760  0.84760  1.0000 0.1102439217
H   H31       1.0  0.39290  0.53240  0.34760  1.0000 0.1102439217
H   H32       1.0  0.60710  0.03240  0.15240  1.0000 0.1102439217
H   H33       1.0  0.41180  0.45630  0.55020  1.0000 0.1202300675
H   H34       1.0  0.58820  0.95630  0.94980  1.0000 0.1202300675
H   H35       1.0  0.58820  0.54370  0.44980  1.0000 0.1202300675
H   H36       1.0  0.41180  0.04370  0.05020  1.0000 0.1202300675
H   H37       1.0  0.00470  0.41590  0.52160  1.0000 0.1102439217
H   H38       1.0  0.99530  0.91590  0.97840  1.0000 0.1102439217
H   H39       1.0  0.99530  0.58410  0.47840  1.0000 0.1102439217
H   H40       1.0  0.00470  0.08410  0.02160  1.0000 0.1102439217
H   H41       1.0  0.20400  0.43310  0.61720  1.0000 0.1202300675
H   H42       1.0  0.79600  0.93310  0.88280  1.0000 0.1202300675
H   H43       1.0  0.79600  0.56690  0.38280  1.0000 0.1202300675
H   H44       1.0  0.20400  0.06690  0.11720  1.0000 0.1202300675
H   H45       1.0  0.00110  0.53130  0.76440  1.0000 0.1202300675
H   H46       1.0  0.99890  0.03130  0.73560  1.0000 0.1202300675
H   H47       1.0  0.99890  0.46870  0.23560  1.0000 0.1202300675
H   H48       1.0  0.00110  0.96870  0.26440  1.0000 0.1202300675
H   H49       1.0  0.78940  0.50300  0.69350  1.0000 0.1102439217
H   H50       1.0  0.21060  0.00300  0.80650  1.0000 0.1102439217
H   H51       1.0  0.21060  0.49700  0.30650  1.0000 0.1102439217
H   H52       1.0  0.78940  0.99700  0.19350  1.0000 0.1102439217
H   H53       1.0  0.25620  0.54270  0.76000  1.0000 0.1102439217
H   H54       1.0  0.74380  0.04270  0.74000  1.0000 0.1102439217
H   H55       1.0  0.74380  0.45730  0.24000  1.0000 0.1102439217
H   H56       1.0  0.25620  0.95730  0.26000  1.0000 0.1102439217
H   H57       1.0  0.34130  0.51550  0.68350  1.0000 0.1036107285
H   H58       1.0  0.65870  0.01550  0.81650  1.0000 0.1036107285
H   H59       1.0  0.65870  0.48450  0.31650  1.0000 0.1036107285
H   H60       1.0  0.34130  0.98450  0.18350  1.0000 0.1036107285
H   H61       1.0  0.44340  0.41870  0.91500  1.0000 0.1475850461
H   H62       1.0  0.55660  0.91870  0.58500  1.0000 0.1475850461
H   H63       1.0  0.55660  0.58130  0.08500  1.0000 0.1475850461
H   H64       1.0  0.44340  0.08130  0.41500  1.0000 0.1475850461
H   H65       1.0  0.80910  0.49380  0.96800  1.0000 0.1371094031
H   H66       1.0  0.19090  0.99380  0.53200  1.0000 0.1371094031
H   H67       1.0  0.19090  0.50620  0.03200  1.0000 0.1371094031
H   H68       1.0  0.80910  0.00620  0.46800  1.0000 0.1371094031
H   H69       1.0  0.51070  0.54540  0.78150  1.0000 0.1202300675
H   H70       1.0  0.48930  0.04540  0.71850  1.0000 0.1202300675
H   H71       1.0  0.48930  0.45460  0.21850  1.0000 0.1202300675
H   H72       1.0  0.51070  0.95460  0.28150  1.0000 0.1202300675
C   C1        1.0  0.94440  0.31550  0.35490  1.0000 -0.0298942238
C   C2        1.0  0.05560  0.81550  0.14510  1.0000 -0.0298942238
C   C3        1.0  0.05560  0.68450  0.64510  1.0000 -0.0298942238
C   C4        1.0  0.94440  0.18450  0.85490  1.0000 -0.0298942238
C   C5        1.0  0.07170  0.33819  0.38110  1.0000 -0.2099459203
C   C6        1.0  0.92830  0.83819  0.11890  1.0000 -0.2099459203
C   C7        1.0  0.92830  0.66181  0.61890  1.0000 -0.2099459203
C   C8        1.0  0.07170  0.16181  0.88110  1.0000 -0.2099459203
C   C9        1.0  0.15200  0.32139  0.45830  1.0000 0.2436951945
C   C10       1.0  0.84800  0.82139  0.04170  1.0000 0.2436951945
C   C11       1.0  0.84800  0.67861  0.54170  1.0000 0.2436951945
C   C12       1.0  0.15200  0.17861  0.95830  1.0000 0.2436951945
C   C13       1.0  0.10630  0.28072  0.50940  1.0000 -0.1974157499
C   C14       1.0  0.89370  0.78072  0.99060  1.0000 -0.1974157499
C   C15       1.0  0.89370  0.71928  0.49060  1.0000 -0.1974157499
C   C16       1.0  0.10630  0.21928  0.00940  1.0000 -0.1974157499
C   C17       1.0  0.97700  0.25802  0.48120  1.0000 0.0013755822
C   C18       1.0  0.02300  0.75802  0.01880  1.0000 0.0013755822
C   C19       1.0  0.02300  0.74198  0.51880  1.0000 0.0013755822
C   C20       1.0  0.97700  0.24198  0.98120  1.0000 0.0013755822
C   C21       1.0  0.89500  0.27529  0.40530  1.0000 -0.1315296585
C   C22       1.0  0.10500  0.77529  0.09470  1.0000 -0.1315296585
C   C23       1.0  0.10500  0.72471  0.59470  1.0000 -0.1315296585
C   C24       1.0  0.89500  0.22471  0.90530  1.0000 -0.1315296585
C   C25       1.0  0.86690  0.33151  0.26810  1.0000 0.5848343415
C   C26       1.0  0.13310  0.83151  0.23190  1.0000 0.5848343415
C   C27       1.0  0.13310  0.66849  0.73190  1.0000 0.5848343415
C   C28       1.0  0.86690  0.16849  0.76810  1.0000 0.5848343415
C   C29       1.0  0.92360  0.21364  0.53260  1.0000 0.6008401482
C   C30       1.0  0.07640  0.71364  0.96740  1.0000 0.6008401482
C   C31       1.0  0.07640  0.78636  0.46740  1.0000 0.6008401482
C   C32       1.0  0.92360  0.28636  0.03260  1.0000 0.6008401482
C   C33       1.0  0.32810  0.38247  0.43570  1.0000 -0.066673267
C   C34       1.0  0.67190  0.88247  0.06430  1.0000 -0.066673267
C   C35       1.0  0.67190  0.61753  0.56430  1.0000 -0.066673267
C   C36       1.0  0.32810  0.11753  0.93570  1.0000 -0.066673267
C   C37       1.0  0.47350  0.39907  0.47760  1.0000 0.0876826175
C   C38       1.0  0.52650  0.89907  0.02240  1.0000 0.0876826175
C   C39       1.0  0.52650  0.60093  0.52240  1.0000 0.0876826175
C   C40       1.0  0.47350  0.10093  0.97760  1.0000 0.0876826175
C   C41       1.0  0.60160  0.38307  0.44410  1.0000 -0.1688157848
C   C42       1.0  0.39840  0.88307  0.05590  1.0000 -0.1688157848
C   C43       1.0  0.39840  0.61693  0.55590  1.0000 -0.1688157848
C   C44       1.0  0.60160  0.11693  0.94410  1.0000 -0.1688157848
C   C45       1.0  0.72820  0.40071  0.48730  1.0000 -0.1402211761
C   C46       1.0  0.27180  0.90071  0.01270  1.0000 -0.1402211761
C   C47       1.0  0.27180  0.59929  0.51270  1.0000 -0.1402211761
C   C48       1.0  0.72820  0.09929  0.98730  1.0000 -0.1402211761
C   C49       1.0  0.73770  0.43389  0.56110  1.0000 0.0637556097
C   C50       1.0  0.26230  0.93389  0.93890  1.0000 0.0637556097
C   C51       1.0  0.26230  0.56611  0.43890  1.0000 0.0637556097
C   C52       1.0  0.73770  0.06611  0.06110  1.0000 0.0637556097
C   C53       1.0  0.61110  0.44995  0.59730  1.0000 -0.1402211761
C   C54       1.0  0.38890  0.94995  0.90270  1.0000 -0.1402211761
C   C55       1.0  0.38890  0.55005  0.40270  1.0000 -0.1402211761
C   C56       1.0  0.61110  0.05005  0.09730  1.0000 -0.1402211761
C   C57       1.0  0.49260  0.43681  0.54260  1.0000 -0.1863045799
C   C58       1.0  0.50740  0.93681  0.95740  1.0000 -0.1863045799
C   C59       1.0  0.50740  0.56319  0.45740  1.0000 -0.1863045799
C   C60       1.0  0.49260  0.06319  0.04260  1.0000 -0.1863045799
C   C61       1.0  0.87460  0.45457  0.60590  1.0000 0.0637556097
C   C62       1.0  0.12540  0.95457  0.89410  1.0000 0.0637556097
C   C63       1.0  0.12540  0.54543  0.39410  1.0000 0.0637556097
C   C64       1.0  0.87460  0.04543  0.10590  1.0000 0.0637556097
C   C65       1.0  0.00120  0.43629  0.57330  1.0000 -0.1402211761
C   C66       1.0  0.99880  0.93629  0.92670  1.0000 -0.1402211761
C   C67       1.0  0.99880  0.56371  0.42670  1.0000 -0.1402211761
C   C68       1.0  0.00120  0.06371  0.07330  1.0000 -0.1402211761
C   C69       1.0  0.12100  0.45143  0.62510  1.0000 -0.1688157848
C   C70       1.0  0.87900  0.95143  0.87490  1.0000 -0.1688157848
C   C71       1.0  0.87900  0.54857  0.37490  1.0000 -0.1688157848
C   C72       1.0  0.12100  0.04857  0.12510  1.0000 -0.1688157848
C   C73       1.0  0.13460  0.49101  0.68870  1.0000 0.0876826175
C   C74       1.0  0.86540  0.99101  0.81130  1.0000 0.0876826175
C   C75       1.0  0.86540  0.50899  0.31130  1.0000 0.0876826175
C   C76       1.0  0.13460  0.00899  0.18870  1.0000 0.0876826175
C   C77       1.0  0.00370  0.50803  0.71710  1.0000 -0.1315296585
C   C78       1.0  0.99630  0.00803  0.78290  1.0000 -0.1315296585
C   C79       1.0  0.99630  0.49197  0.28290  1.0000 -0.1315296585
C   C80       1.0  0.00370  0.99197  0.21710  1.0000 -0.1315296585
C   C81       1.0  0.87620  0.49038  0.67490  1.0000 -0.1402211761
C   C82       1.0  0.12380  0.99038  0.82510  1.0000 -0.1402211761
C   C83       1.0  0.12380  0.50962  0.32510  1.0000 -0.1402211761
C   C84       1.0  0.87620  0.00962  0.17490  1.0000 -0.1402211761
C   C85       1.0  0.27190  0.51102  0.73050  1.0000 -0.0768698914
C   C86       1.0  0.72810  0.01102  0.76950  1.0000 -0.0768698914
C   C87       1.0  0.72810  0.48898  0.26950  1.0000 -0.0768698914
C   C88       1.0  0.27190  0.98898  0.23050  1.0000 -0.0768698914
C   C89       1.0  0.45280  0.48329  0.84280  1.0000 0.2436951945
C   C90       1.0  0.54720  0.98329  0.65720  1.0000 0.2436951945
C   C91       1.0  0.54720  0.51671  0.15720  1.0000 0.2436951945
C   C92       1.0  0.45280  0.01671  0.34280  1.0000 0.2436951945
C   C93       1.0  0.50030  0.44634  0.90530  1.0000 -0.1974157499
C   C94       1.0  0.49970  0.94634  0.59470  1.0000 -0.1974157499
C   C95       1.0  0.49970  0.55366  0.09470  1.0000 -0.1974157499
C   C96       1.0  0.50030  0.05366  0.40530  1.0000 -0.1974157499
C   C97       1.0  0.63280  0.45131  0.95260  1.0000 -0.0244156936
C   C98       1.0  0.36720  0.95131  0.54740  1.0000 -0.0244156936
C   C99       1.0  0.36720  0.54869  0.04740  1.0000 -0.0244156936
C   C100      1.0  0.63280  0.04869  0.45260  1.0000 -0.0244156936
C   C101      1.0  0.71930  0.49145  0.93700  1.0000 -0.1206715101
C   C102      1.0  0.28070  0.99145  0.56300  1.0000 -0.1206715101
C   C103      1.0  0.28070  0.50855  0.06300  1.0000 -0.1206715101
C   C104      1.0  0.71930  0.00855  0.43700  1.0000 -0.1206715101
C   C105      1.0  0.67340  0.52877  0.87500  1.0000 -0.0298942238
C   C106      1.0  0.32660  0.02877  0.62500  1.0000 -0.0298942238
C   C107      1.0  0.32660  0.47123  0.12500  1.0000 -0.0298942238
C   C108      1.0  0.67340  0.97123  0.37500  1.0000 -0.0298942238
C   C109      1.0  0.54000  0.52226  0.82640  1.0000 -0.2313127624
C   C110      1.0  0.46000  0.02226  0.67360  1.0000 -0.2313127624
C   C111      1.0  0.46000  0.47774  0.17360  1.0000 -0.2313127624
C   C112      1.0  0.54000  0.97774  0.32640  1.0000 -0.2313127624
C   C113      1.0  0.68660  0.41190  0.01780  1.0000 0.6008401482
C   C114      1.0  0.31340  0.91190  0.48220  1.0000 0.6008401482
C   C115      1.0  0.31340  0.58810  0.98220  1.0000 0.6008401482
C   C116      1.0  0.68660  0.08810  0.51780  1.0000 0.6008401482
C   C117      1.0  0.76660  0.57109  0.85840  1.0000 0.55999196
C   C118      1.0  0.23340  0.07109  0.64160  1.0000 0.55999196
C   C119      1.0  0.23340  0.42891  0.14160  1.0000 0.55999196
C   C120      1.0  0.76660  0.92891  0.35840  1.0000 0.55999196
O   O1        1.0  0.77140  0.30329  0.23287  1.0000 -0.5330946477
O   O2        1.0  0.22860  0.80329  0.26713  1.0000 -0.5330946477
O   O3        1.0  0.22860  0.69671  0.76713  1.0000 -0.5330946477
O   O4        1.0  0.77140  0.19671  0.73287  1.0000 -0.5330946477
O   O5        1.0  0.90010  0.37184  0.23681  1.0000 -0.5394274997
O   O6        1.0  0.09990  0.87184  0.26319  1.0000 -0.5394274997
O   O7        1.0  0.09990  0.62816  0.76319  1.0000 -0.5394274997
O   O8        1.0  0.90010  0.12816  0.73681  1.0000 -0.5394274997
O   O9        1.0  0.28190  0.34276  0.48999  1.0000 -0.1688157848
O   O10       1.0  0.71810  0.84276  0.01001  1.0000 -0.1688157848
O   O11       1.0  0.71810  0.65724  0.51001  1.0000 -0.1688157848
O   O12       1.0  0.28190  0.15724  0.98999  1.0000 -0.1688157848
O   O13       1.0  0.32300  0.47403  0.79906  1.0000 -0.1619295733
O   O14       1.0  0.67700  0.97403  0.70094  1.0000 -0.1619295733
O   O15       1.0  0.67700  0.52597  0.20094  1.0000 -0.1619295733
O   O16       1.0  0.32300  0.02597  0.29906  1.0000 -0.1619295733
O   O17       1.0  0.73310  0.60522  0.80130  1.0000 -0.5791650968
O   O18       1.0  0.26690  0.10522  0.69870  1.0000 -0.5791650968
O   O19       1.0  0.26690  0.39478  0.19870  1.0000 -0.5791650968
O   O20       1.0  0.73310  0.89478  0.30130  1.0000 -0.5791650968
O   O21       1.0  0.88850  0.57131  0.90341  1.0000 -0.5479653633
O   O22       1.0  0.11150  0.07131  0.59659  1.0000 -0.5479653633
O   O23       1.0  0.11150  0.42869  0.09659  1.0000 -0.5479653633
O   O24       1.0  0.88850  0.92869  0.40341  1.0000 -0.5479653633
O   O25       1.0  0.81580  0.41416  0.04050  1.0000 -0.5330946477
O   O26       1.0  0.18420  0.91416  0.45950  1.0000 -0.5330946477
O   O27       1.0  0.18420  0.58584  0.95950  1.0000 -0.5330946477
O   O28       1.0  0.81580  0.08584  0.54050  1.0000 -0.5330946477
O   O29       1.0  0.79320  0.20532  0.52945  1.0000 -0.5479653633
O   O30       1.0  0.20680  0.70532  0.97055  1.0000 -0.5479653633
O   O31       1.0  0.20680  0.79468  0.47055  1.0000 -0.5479653633
O   O32       1.0  0.79320  0.29468  0.02945  1.0000 -0.5479653633
O   O33       1.0  0.02170  0.18605  0.57204  1.0000 -0.5394274997
O   O34       1.0  0.97830  0.68605  0.92796  1.0000 -0.5394274997
O   O35       1.0  0.97830  0.81395  0.42796  1.0000 -0.5394274997
O   O36       1.0  0.02170  0.31395  0.07204  1.0000 -0.5394274997
O   O37       1.0  0.60020  0.37995  0.04558  1.0000 -0.5479653633
O   O38       1.0  0.39980  0.87995  0.45442  1.0000 -0.5479653633
O   O39       1.0  0.39980  0.62005  0.95442  1.0000 -0.5479653633
O   O40       1.0  0.60020  0.12005  0.54558  1.0000 -0.5479653633
