# DDEC6 charges by PACMAN v1.1 (https://github.com/mtap-research/PACMAN-charge/)
data_2013[Co][lvt]3[ASR]1
_chemical_formula_sum              "Co8 H72 C64 N40 O16"
_cell_length_a       15.8189
_cell_length_b       15.8189
_cell_length_c       15.8189
_cell_angle_alpha    113.949
_cell_angle_beta     113.949
_cell_angle_gamma    100.845

_symmetry_space_group_name_H-M    "P 1"
_symmetry_Int_Tables_number       1

loop_
  _symmetry_equiv_pos_as_xyz
  'x, y, z'

loop_
  _atom_site_type_symbol
  _atom_site_label
  _atom_site_symmetry_multiplicity
  _atom_site_fract_x
  _atom_site_fract_y
  _atom_site_fract_z
  _atom_site_occupancy
  _atom_site_charge
Co  Co1       1.0  0.40465  0.72302  0.75685  1.0000 0.7425598015
Co  Co2       1.0  0.96617  0.64780  0.24315  1.0000 0.7425598015
Co  Co3       1.0  0.47302  0.21617  0.81837  1.0000 0.7425598015
Co  Co4       1.0  0.39780  0.65465  0.18163  1.0000 0.7425598015
Co  Co5       1.0  0.34535  0.52698  0.74315  1.0000 0.7425598015
Co  Co6       1.0  0.78383  0.60220  0.25685  1.0000 0.7425598015
Co  Co7       1.0  0.27698  0.03383  0.68163  1.0000 0.7425598015
Co  Co8       1.0  0.35220  0.59535  0.31837  1.0000 0.7425598015
H   H1        1.0  0.28700  0.82560  0.66480  1.0000 0.10905015
H   H2        1.0  0.16080  0.62220  0.33520  1.0000 0.10905015
H   H3        1.0  0.57560  0.41080  0.03860  1.0000 0.10905015
H   H4        1.0  0.37220  0.53700  0.96140  1.0000 0.10905015
H   H5        1.0  0.46300  0.42440  0.83520  1.0000 0.10905015
H   H6        1.0  0.58920  0.62780  0.16480  1.0000 0.10905015
H   H7        1.0  0.17440  0.83920  0.46140  1.0000 0.10905015
H   H8        1.0  0.37780  0.71300  0.53860  1.0000 0.10905015
H   H9        1.0  0.08230  0.62180  0.72550  1.0000 0.1226718721
H   H10       1.0  0.89630  0.35680  0.27450  1.0000 0.1226718721
H   H11       1.0  0.37180  0.14630  0.03950  1.0000 0.1226718721
H   H12       1.0  0.10680  0.33230  0.96050  1.0000 0.1226718721
H   H13       1.0  0.66770  0.62820  0.77450  1.0000 0.1226718721
H   H14       1.0  0.85370  0.89320  0.22550  1.0000 0.1226718721
H   H15       1.0  0.37820  0.10370  0.46050  1.0000 0.1226718721
H   H16       1.0  0.64320  0.91770  0.53950  1.0000 0.1226718721
H   H17       1.0  0.03760  0.53410  0.60510  1.0000 0.10905015
H   H18       1.0  0.92900  0.43250  0.39490  1.0000 0.10905015
H   H19       1.0  0.28410  0.17900  0.99650  1.0000 0.10905015
H   H20       1.0  0.18250  0.28760  0.00350  1.0000 0.10905015
H   H21       1.0  0.71240  0.71590  0.89490  1.0000 0.10905015
H   H22       1.0  0.82100  0.81750  0.10510  1.0000 0.10905015
H   H23       1.0  0.46590  0.07100  0.50350  1.0000 0.10905015
H   H24       1.0  0.56750  0.96240  0.49650  1.0000 0.10905015
H   H25       1.0  0.98950  0.66330  0.60480  1.0000 0.10905015
H   H26       1.0  0.05850  0.38470  0.39520  1.0000 0.10905015
H   H27       1.0  0.41330  0.30850  0.17380  1.0000 0.10905015
H   H28       1.0  0.13470  0.23950  0.82620  1.0000 0.10905015
H   H29       1.0  0.76050  0.58670  0.89520  1.0000 0.10905015
H   H30       1.0  0.69150  0.86530  0.10480  1.0000 0.10905015
H   H31       1.0  0.33670  0.94150  0.32620  1.0000 0.10905015
H   H32       1.0  0.61530  0.01050  0.67380  1.0000 0.10905015
H   H33       1.0  0.05890  0.65380  0.55670  1.0000 0.1226718721
H   H34       1.0  0.09710  0.50220  0.44330  1.0000 0.1226718721
H   H35       1.0  0.40380  0.34710  0.09490  1.0000 0.1226718721
H   H36       1.0  0.25220  0.30890  0.90510  1.0000 0.1226718721
H   H37       1.0  0.69110  0.59620  0.94330  1.0000 0.1226718721
H   H38       1.0  0.65290  0.74780  0.05670  1.0000 0.1226718721
H   H39       1.0  0.34620  0.90290  0.40510  1.0000 0.1226718721
H   H40       1.0  0.49780  0.94110  0.59490  1.0000 0.1226718721
H   H41       1.0  0.10420  0.74190  0.67750  1.0000 0.1226718721
H   H42       1.0  0.06440  0.42670  0.32250  1.0000 0.1226718721
H   H43       1.0  0.49190  0.31440  0.13770  1.0000 0.1226718721
H   H44       1.0  0.17670  0.35420  0.86230  1.0000 0.1226718721
H   H45       1.0  0.64580  0.50810  0.82250  1.0000 0.1226718721
H   H46       1.0  0.68560  0.82330  0.17750  1.0000 0.1226718721
H   H47       1.0  0.25810  0.93560  0.36230  1.0000 0.1226718721
H   H48       1.0  0.57330  0.89580  0.63770  1.0000 0.1226718721
H   H49       1.0  0.68100  0.21190  0.94810  1.0000 0.1020680663
H   H50       1.0  0.26380  0.73290  0.05190  1.0000 0.1020680663
H   H51       1.0  0.96190  0.51380  0.03090  1.0000 0.1020680663
H   H52       1.0  0.48290  0.93100  0.96910  1.0000 0.1020680663
H   H53       1.0  0.06900  0.03810  0.55190  1.0000 0.1020680663
H   H54       1.0  0.48620  0.51710  0.44810  1.0000 0.1020680663
H   H55       1.0  0.78810  0.73620  0.46910  1.0000 0.1020680663
H   H56       1.0  0.26710  0.31900  0.53090  1.0000 0.1020680663
H   H57       1.0  0.73130  0.95570  0.95780  1.0000 0.3196417798
H   H58       1.0  0.99790  0.77350  0.04220  1.0000 0.3196417798
H   H59       1.0  0.70570  0.24790  0.72440  1.0000 0.3196417798
H   H60       1.0  0.52350  0.98130  0.27560  1.0000 0.3196417798
H   H61       1.0  0.01870  0.29430  0.54220  1.0000 0.3196417798
H   H62       1.0  0.75210  0.47650  0.45780  1.0000 0.3196417798
H   H63       1.0  0.04430  0.00210  0.77560  1.0000 0.3196417798
H   H64       1.0  0.22650  0.26870  0.22440  1.0000 0.3196417798
H   H65       1.0  0.63050  0.86590  0.88520  1.0000 0.3148341884
H   H66       1.0  0.98070  0.74530  0.11480  1.0000 0.3148341884
H   H67       1.0  0.61590  0.23070  0.73540  1.0000 0.3148341884
H   H68       1.0  0.49530  0.88050  0.26460  1.0000 0.3148341884
H   H69       1.0  0.11950  0.38410  0.61480  1.0000 0.3148341884
H   H70       1.0  0.76930  0.50470  0.38520  1.0000 0.3148341884
H   H71       1.0  0.13410  0.01930  0.76460  1.0000 0.3148341884
H   H72       1.0  0.25470  0.36950  0.23540  1.0000 0.3148341884
C   C1        1.0  0.35382  0.87559  0.71055  1.0000 0.1751681377
C   C2        1.0  0.16504  0.64327  0.28945  1.0000 0.1751681377
C   C3        1.0  0.62559  0.41504  0.02177  1.0000 0.1751681377
C   C4        1.0  0.39327  0.60382  0.97823  1.0000 0.1751681377
C   C5        1.0  0.39618  0.37441  0.78945  1.0000 0.1751681377
C   C6        1.0  0.58496  0.60673  0.21055  1.0000 0.1751681377
C   C7        1.0  0.12441  0.83496  0.47823  1.0000 0.1751681377
C   C8        1.0  0.35673  0.64618  0.52177  1.0000 0.1751681377
C   C9        1.0  0.51527  0.95052  0.81825  1.0000 -0.05812718
C   C10       1.0  0.13227  0.69702  0.18175  1.0000 -0.05812718
C   C11       1.0  0.70052  0.38227  0.93525  1.0000 -0.05812718
C   C12       1.0  0.44702  0.76527  0.06475  1.0000 -0.05812718
C   C13       1.0  0.23473  0.29948  0.68175  1.0000 -0.05812718
C   C14       1.0  0.61773  0.55298  0.31825  1.0000 -0.05812718
C   C15       1.0  0.04948  0.86773  0.56475  1.0000 -0.05812718
C   C16       1.0  0.30298  0.48473  0.43525  1.0000 -0.05812718
C   C17       1.0  0.62074  0.98640  0.88914  1.0000 0.3726206531
C   C18       1.0  0.09726  0.73160  0.11086  1.0000 0.3726206531
C   C19       1.0  0.73640  0.34726  0.86566  1.0000 0.3726206531
C   C20       1.0  0.48160  0.87074  0.13434  1.0000 0.3726206531
C   C21       1.0  0.12926  0.26360  0.61086  1.0000 0.3726206531
C   C22       1.0  0.65274  0.51840  0.38914  1.0000 0.3726206531
C   C23       1.0  0.01360  0.90274  0.63434  1.0000 0.3726206531
C   C24       1.0  0.26840  0.37926  0.36566  1.0000 0.3726206531
C   C25       1.0  0.19149  0.60989  0.69152  1.0000 0.6219966819
C   C26       1.0  0.91837  0.49997  0.30848  1.0000 0.6219966819
C   C27       1.0  0.35989  0.16837  0.91840  1.0000 0.6219966819
C   C28       1.0  0.24997  0.44149  0.08160  1.0000 0.6219966819
C   C29       1.0  0.55851  0.64011  0.80848  1.0000 0.6219966819
C   C30       1.0  0.83163  0.75003  0.19152  1.0000 0.6219966819
C   C31       1.0  0.39011  0.08163  0.58160  1.0000 0.6219966819
C   C32       1.0  0.50003  0.80851  0.41840  1.0000 0.6219966819
C   C33       1.0  0.08693  0.60422  0.66171  1.0000 -0.2808656621
C   C34       1.0  0.94251  0.42522  0.33829  1.0000 -0.2808656621
C   C35       1.0  0.35422  0.19251  0.01729  1.0000 -0.2808656621
C   C36       1.0  0.17522  0.33693  0.98271  1.0000 -0.2808656621
C   C37       1.0  0.66307  0.64578  0.83829  1.0000 -0.2808656621
C   C38       1.0  0.80749  0.82478  0.16171  1.0000 -0.2808656621
C   C39       1.0  0.39578  0.05749  0.48271  1.0000 -0.2808656621
C   C40       1.0  0.57478  0.91307  0.51729  1.0000 -0.2808656621
C   C41       1.0  0.05720  0.67200  0.62160  1.0000 -0.3339555751
C   C42       1.0  0.05040  0.43560  0.37840  1.0000 -0.3339555751
C   C43       1.0  0.42200  0.30040  0.11480  1.0000 -0.3339555751
C   C44       1.0  0.18560  0.30720  0.88520  1.0000 -0.3339555751
C   C45       1.0  0.69280  0.57800  0.87840  1.0000 -0.3339555751
C   C46       1.0  0.69960  0.81440  0.12160  1.0000 -0.3339555751
C   C47       1.0  0.32800  0.94960  0.38520  1.0000 -0.3339555751
C   C48       1.0  0.56440  0.94280  0.61480  1.0000 -0.3339555751
C   C49       1.0  0.47976  0.01890  0.80036  1.0000 0.2767506723
C   C50       1.0  0.21854  0.67940  0.19964  1.0000 0.2767506723
C   C51       1.0  0.76890  0.46854  0.03914  1.0000 0.2767506723
C   C52       1.0  0.42940  0.72976  0.96086  1.0000 0.2767506723
C   C53       1.0  0.27024  0.23110  0.69964  1.0000 0.2767506723
C   C54       1.0  0.53146  0.57060  0.30036  1.0000 0.2767506723
C   C55       1.0  0.98110  0.78146  0.46086  1.0000 0.2767506723
C   C56       1.0  0.32060  0.52024  0.53914  1.0000 0.2767506723
C   C57       1.0  0.63695  0.14409  0.91288  1.0000 0.2207701892
C   C58       1.0  0.23121  0.72407  0.08712  1.0000 0.2207701892
C   C59       1.0  0.89409  0.48121  0.00714  1.0000 0.2207701892
C   C60       1.0  0.47407  0.88695  0.99286  1.0000 0.2207701892
C   C61       1.0  0.11305  0.10591  0.58712  1.0000 0.2207701892
C   C62       1.0  0.51879  0.52593  0.41288  1.0000 0.2207701892
C   C63       1.0  0.85591  0.76879  0.49286  1.0000 0.2207701892
C   C64       1.0  0.27593  0.36305  0.50714  1.0000 0.2207701892
N   N1        1.0  0.43242  0.85682  0.75952  1.0000 -0.3404964137
N   N2        1.0  0.09730  0.67290  0.24048  1.0000 -0.3404964137
N   N3        1.0  0.60682  0.34730  0.92440  1.0000 -0.3404964137
N   N4        1.0  0.42290  0.68242  0.07560  1.0000 -0.3404964137
N   N5        1.0  0.31758  0.39318  0.74048  1.0000 -0.3404964137
N   N6        1.0  0.65270  0.57710  0.25952  1.0000 -0.3404964137
N   N7        1.0  0.14318  0.90270  0.57560  1.0000 -0.3404964137
N   N8        1.0  0.32710  0.56758  0.42440  1.0000 -0.3404964137
N   N9        1.0  0.66627  0.92920  0.91365  1.0000 -0.5369810875
N   N10       1.0  0.01555  0.75262  0.08635  1.0000 -0.5369810875
N   N11       1.0  0.67920  0.26555  0.76293  1.0000 -0.5369810875
N   N12       1.0  0.50262  0.91627  0.23707  1.0000 -0.5369810875
N   N13       1.0  0.08373  0.32080  0.58635  1.0000 -0.5369810875
N   N14       1.0  0.73445  0.49738  0.41365  1.0000 -0.5369810875
N   N15       1.0  0.07080  0.98445  0.73707  1.0000 -0.5369810875
N   N16       1.0  0.24738  0.33373  0.26293  1.0000 -0.5369810875
N   N17       1.0  0.68008  0.08580  0.93582  1.0000 -0.4185807
N   N18       1.0  0.14998  0.74426  0.06418  1.0000 -0.4185807
N   N19       1.0  0.83580  0.39998  0.90572  1.0000 -0.4185807
N   N20       1.0  0.49426  0.93008  0.09428  1.0000 -0.4185807
N   N21       1.0  0.06992  0.16420  0.56418  1.0000 -0.4185807
N   N22       1.0  0.60002  0.50574  0.43582  1.0000 -0.4185807
N   N23       1.0  0.91420  0.85002  0.59428  1.0000 -0.4185807
N   N24       1.0  0.25574  0.31992  0.40572  1.0000 -0.4185807
N   N25       1.0  0.37643  0.97102  0.73099  1.0000 -0.3919731009
N   N26       1.0  0.24003  0.64544  0.26901  1.0000 -0.3919731009
N   N27       1.0  0.72102  0.49003  0.09459  1.0000 -0.3919731009
N   N28       1.0  0.39544  0.62643  0.90541  1.0000 -0.3919731009
N   N29       1.0  0.37357  0.27898  0.76901  1.0000 -0.3919731009
N   N30       1.0  0.50997  0.60456  0.23099  1.0000 -0.3919731009
N   N31       1.0  0.02898  0.75997  0.40541  1.0000 -0.3919731009
N   N32       1.0  0.35456  0.62357  0.59459  1.0000 -0.3919731009
N   N33       1.0  0.53903  0.11843  0.84620  1.0000 -0.3759347166
N   N34       1.0  0.27223  0.69283  0.15380  1.0000 -0.3759347166
N   N35       1.0  0.86843  0.52223  0.07940  1.0000 -0.3759347166
N   N36       1.0  0.44283  0.78903  0.92060  1.0000 -0.3759347166
N   N37       1.0  0.21097  0.13157  0.65380  1.0000 -0.3759347166
N   N38       1.0  0.47777  0.55717  0.34620  1.0000 -0.3759347166
N   N39       1.0  0.88157  0.72777  0.42060  1.0000 -0.3759347166
N   N40       1.0  0.30717  0.46097  0.57940  1.0000 -0.3759347166
O   O1        1.0  0.25586  0.68763  0.71367  1.0000 -0.5342053067
O   O2        1.0  0.97396  0.54219  0.28633  1.0000 -0.5342053067
O   O3        1.0  0.43763  0.22396  0.93177  1.0000 -0.5342053067
O   O4        1.0  0.29219  0.50586  0.06823  1.0000 -0.5342053067
O   O5        1.0  0.49414  0.56237  0.78633  1.0000 -0.5342053067
O   O6        1.0  0.77604  0.70781  0.21367  1.0000 -0.5342053067
O   O7        1.0  0.31237  0.02604  0.56823  1.0000 -0.5342053067
O   O8        1.0  0.45781  0.74414  0.43177  1.0000 -0.5342053067
O   O9        1.0  0.20905  0.53627  0.69472  1.0000 -0.5704564939
O   O10       1.0  0.84155  0.51433  0.30528  1.0000 -0.5704564939
O   O11       1.0  0.28627  0.09155  0.82722  1.0000 -0.5704564939
O   O12       1.0  0.26433  0.45905  0.17278  1.0000 -0.5704564939
O   O13       1.0  0.54095  0.71373  0.80528  1.0000 -0.5704564939
O   O14       1.0  0.90845  0.73567  0.19472  1.0000 -0.5704564939
O   O15       1.0  0.46373  0.15845  0.67278  1.0000 -0.5704564939
O   O16       1.0  0.48567  0.79095  0.32722  1.0000 -0.5704564939
