# DDEC6 charges by PACMAN v1.1 (https://github.com/mtap-research/PACMAN-charge/)
data_2010[Fe][nbo]3[ASR]3
_chemical_formula_sum              "Fe6 H96 C144 N60"
_cell_length_a       17.9775
_cell_length_b       17.9775
_cell_length_c       17.9775
_cell_angle_alpha    111.443
_cell_angle_beta     111.443
_cell_angle_gamma    111.443

_symmetry_space_group_name_H-M    "P 1"
_symmetry_Int_Tables_number       1

loop_
  _symmetry_equiv_pos_as_xyz
  'x, y, z'

loop_
  _atom_site_type_symbol
  _atom_site_label
  _atom_site_symmetry_multiplicity
  _atom_site_fract_x
  _atom_site_fract_y
  _atom_site_fract_z
  _atom_site_occupancy
  _atom_site_charge
Fe  Fe1       1.0  0.50000  0.50000  0.00000  1.0000 0.2788439564
Fe  Fe2       1.0  0.00000  0.50000  0.50000  1.0000 0.2788439564
Fe  Fe3       1.0  0.50000  0.00000  0.50000  1.0000 0.2788439564
Fe  Fe4       1.0  0.00000  0.50000  0.00000  1.0000 0.2788439564
Fe  Fe5       1.0  0.50000  0.00000  0.00000  1.0000 0.2788439564
Fe  Fe6       1.0  0.00000  0.00000  0.50000  1.0000 0.2788439564
H   H1        1.0  0.34888  0.29620  0.09140  1.0000 0.1416340108
H   H2        1.0  0.09140  0.34888  0.29620  1.0000 0.1416340108
H   H3        1.0  0.29620  0.09140  0.34888  1.0000 0.1416340108
H   H4        1.0  0.65112  0.70380  0.90860  1.0000 0.1416340108
H   H5        1.0  0.90860  0.65112  0.70380  1.0000 0.1416340108
H   H6        1.0  0.70380  0.90860  0.65112  1.0000 0.1416340108
H   H7        1.0  0.19388  0.25910  0.00810  1.0000 0.1216909734
H   H8        1.0  0.00810  0.19388  0.25910  1.0000 0.1216909734
H   H9        1.0  0.25910  0.00810  0.19388  1.0000 0.1216909734
H   H10       1.0  0.80612  0.74090  0.99190  1.0000 0.1216909734
H   H11       1.0  0.99190  0.80612  0.74090  1.0000 0.1216909734
H   H12       1.0  0.74090  0.99190  0.80612  1.0000 0.1216909734
H   H13       1.0  0.16008  0.31800  0.91160  1.0000 0.1300073462
H   H14       1.0  0.91160  0.16008  0.31800  1.0000 0.1300073462
H   H15       1.0  0.31800  0.91160  0.16008  1.0000 0.1300073462
H   H16       1.0  0.83992  0.68200  0.08840  1.0000 0.1300073462
H   H17       1.0  0.08840  0.83992  0.68200  1.0000 0.1300073462
H   H18       1.0  0.68200  0.08840  0.83992  1.0000 0.1300073462
H   H19       1.0  0.28008  0.41070  0.90410  1.0000 0.1100904417
H   H20       1.0  0.90410  0.28008  0.41070  1.0000 0.1100904417
H   H21       1.0  0.41070  0.90410  0.28008  1.0000 0.1100904417
H   H22       1.0  0.71992  0.58930  0.09590  1.0000 0.1100904417
H   H23       1.0  0.09590  0.71992  0.58930  1.0000 0.1100904417
H   H24       1.0  0.58930  0.09590  0.71992  1.0000 0.1100904417
H   H25       1.0  0.82758  0.55360  0.26160  1.0000 0.1300073462
H   H26       1.0  0.26160  0.82758  0.55360  1.0000 0.1300073462
H   H27       1.0  0.55360  0.26160  0.82758  1.0000 0.1300073462
H   H28       1.0  0.17242  0.44640  0.73840  1.0000 0.1300073462
H   H29       1.0  0.73840  0.17242  0.44640  1.0000 0.1300073462
H   H30       1.0  0.44640  0.73840  0.17242  1.0000 0.1300073462
H   H31       1.0  0.95618  0.57460  0.37870  1.0000 0.1100904417
H   H32       1.0  0.37870  0.95618  0.57460  1.0000 0.1100904417
H   H33       1.0  0.57460  0.37870  0.95618  1.0000 0.1100904417
H   H34       1.0  0.04382  0.42540  0.62130  1.0000 0.1100904417
H   H35       1.0  0.62130  0.04382  0.42540  1.0000 0.1100904417
H   H36       1.0  0.42540  0.62130  0.04382  1.0000 0.1100904417
H   H37       1.0  0.78268  0.35540  0.36130  1.0000 0.1100904417
H   H38       1.0  0.36130  0.78268  0.35540  1.0000 0.1100904417
H   H39       1.0  0.35540  0.36130  0.78268  1.0000 0.1100904417
H   H40       1.0  0.21732  0.64460  0.63870  1.0000 0.1100904417
H   H41       1.0  0.63870  0.21732  0.64460  1.0000 0.1100904417
H   H42       1.0  0.64460  0.63870  0.21732  1.0000 0.1100904417
H   H43       1.0  0.65118  0.32970  0.24490  1.0000 0.1300073462
H   H44       1.0  0.24490  0.65118  0.32970  1.0000 0.1300073462
H   H45       1.0  0.32970  0.24490  0.65118  1.0000 0.1300073462
H   H46       1.0  0.34882  0.67030  0.75510  1.0000 0.1300073462
H   H47       1.0  0.75510  0.34882  0.67030  1.0000 0.1300073462
H   H48       1.0  0.67030  0.75510  0.34882  1.0000 0.1300073462
H   H49       1.0  0.15112  0.40860  0.20380  1.0000 0.1416340108
H   H50       1.0  0.40860  0.20380  0.15112  1.0000 0.1416340108
H   H51       1.0  0.20380  0.15112  0.40860  1.0000 0.1416340108
H   H52       1.0  0.84888  0.59140  0.79620  1.0000 0.1416340108
H   H53       1.0  0.59140  0.79620  0.84888  1.0000 0.1416340108
H   H54       1.0  0.79620  0.84888  0.59140  1.0000 0.1416340108
H   H55       1.0  0.30612  0.49190  0.24090  1.0000 0.1216909734
H   H56       1.0  0.49190  0.24090  0.30612  1.0000 0.1216909734
H   H57       1.0  0.24090  0.30612  0.49190  1.0000 0.1216909734
H   H58       1.0  0.69388  0.50810  0.75910  1.0000 0.1216909734
H   H59       1.0  0.50810  0.75910  0.69388  1.0000 0.1216909734
H   H60       1.0  0.75910  0.69388  0.50810  1.0000 0.1216909734
H   H61       1.0  0.33992  0.58840  0.18200  1.0000 0.1300073462
H   H62       1.0  0.58840  0.18200  0.33992  1.0000 0.1300073462
H   H63       1.0  0.18200  0.33992  0.58840  1.0000 0.1300073462
H   H64       1.0  0.66008  0.41160  0.81800  1.0000 0.1300073462
H   H65       1.0  0.41160  0.81800  0.66008  1.0000 0.1300073462
H   H66       1.0  0.81800  0.66008  0.41160  1.0000 0.1300073462
H   H67       1.0  0.21992  0.59590  0.08930  1.0000 0.1100904417
H   H68       1.0  0.59590  0.08930  0.21992  1.0000 0.1100904417
H   H69       1.0  0.08930  0.21992  0.59590  1.0000 0.1100904417
H   H70       1.0  0.78008  0.40410  0.91070  1.0000 0.1100904417
H   H71       1.0  0.40410  0.91070  0.78008  1.0000 0.1100904417
H   H72       1.0  0.91070  0.78008  0.40410  1.0000 0.1100904417
H   H73       1.0  0.67242  0.23840  0.94640  1.0000 0.1300073462
H   H74       1.0  0.23840  0.94640  0.67242  1.0000 0.1300073462
H   H75       1.0  0.94640  0.67242  0.23840  1.0000 0.1300073462
H   H76       1.0  0.32758  0.76160  0.05360  1.0000 0.1300073462
H   H77       1.0  0.76160  0.05360  0.32758  1.0000 0.1300073462
H   H78       1.0  0.05360  0.32758  0.76160  1.0000 0.1300073462
H   H79       1.0  0.54382  0.12130  0.92540  1.0000 0.1100904417
H   H80       1.0  0.12130  0.92540  0.54382  1.0000 0.1100904417
H   H81       1.0  0.92540  0.54382  0.12130  1.0000 0.1100904417
H   H82       1.0  0.45618  0.87870  0.07460  1.0000 0.1100904417
H   H83       1.0  0.87870  0.07460  0.45618  1.0000 0.1100904417
H   H84       1.0  0.07460  0.45618  0.87870  1.0000 0.1100904417
H   H85       1.0  0.71732  0.13870  0.14460  1.0000 0.1100904417
H   H86       1.0  0.13870  0.14460  0.71732  1.0000 0.1100904417
H   H87       1.0  0.14460  0.71732  0.13870  1.0000 0.1100904417
H   H88       1.0  0.28268  0.86130  0.85540  1.0000 0.1100904417
H   H89       1.0  0.86130  0.85540  0.28268  1.0000 0.1100904417
H   H90       1.0  0.85540  0.28268  0.86130  1.0000 0.1100904417
H   H91       1.0  0.84882  0.25510  0.17030  1.0000 0.1300073462
H   H92       1.0  0.25510  0.17030  0.84882  1.0000 0.1300073462
H   H93       1.0  0.17030  0.84882  0.25510  1.0000 0.1300073462
H   H94       1.0  0.15118  0.74490  0.82970  1.0000 0.1300073462
H   H95       1.0  0.74490  0.82970  0.15118  1.0000 0.1300073462
H   H96       1.0  0.82970  0.15118  0.74490  1.0000 0.1300073462
C   C1        1.0  0.50398  0.40810  0.09680  1.0000 0.204146945
C   C2        1.0  0.09680  0.50398  0.40810  1.0000 0.204146945
C   C3        1.0  0.40810  0.09680  0.50398  1.0000 0.204146945
C   C4        1.0  0.49602  0.59190  0.90320  1.0000 0.204146945
C   C5        1.0  0.90320  0.49602  0.59190  1.0000 0.204146945
C   C6        1.0  0.59190  0.90320  0.49602  1.0000 0.204146945
C   C7        1.0  0.64118  0.43850  0.17730  1.0000 0.2509148838
C   C8        1.0  0.17730  0.64118  0.43850  1.0000 0.2509148838
C   C9        1.0  0.43850  0.17730  0.64118  1.0000 0.2509148838
C   C10       1.0  0.35882  0.56150  0.82270  1.0000 0.2509148838
C   C11       1.0  0.82270  0.35882  0.56150  1.0000 0.2509148838
C   C12       1.0  0.56150  0.82270  0.35882  1.0000 0.2509148838
C   C13       1.0  0.40278  0.37740  0.04600  1.0000 0.1656694695
C   C14       1.0  0.04600  0.40278  0.37740  1.0000 0.1656694695
C   C15       1.0  0.37740  0.04600  0.40278  1.0000 0.1656694695
C   C16       1.0  0.59722  0.62260  0.95400  1.0000 0.1656694695
C   C17       1.0  0.95400  0.59722  0.62260  1.0000 0.1656694695
C   C18       1.0  0.62260  0.95400  0.59722  1.0000 0.1656694695
C   C19       1.0  0.33308  0.31910  0.05340  1.0000 -0.1677878287
C   C20       1.0  0.05340  0.33308  0.31910  1.0000 -0.1677878287
C   C21       1.0  0.31910  0.05340  0.33308  1.0000 -0.1677878287
C   C22       1.0  0.66692  0.68090  0.94660  1.0000 -0.1677878287
C   C23       1.0  0.94660  0.66692  0.68090  1.0000 -0.1677878287
C   C24       1.0  0.68090  0.94660  0.66692  1.0000 -0.1677878287
C   C25       1.0  0.24208  0.29680  0.00410  1.0000 -0.0516123781
C   C26       1.0  0.00410  0.24208  0.29680  1.0000 -0.0516123781
C   C27       1.0  0.29680  0.00410  0.24208  1.0000 -0.0516123781
C   C28       1.0  0.75792  0.70320  0.99590  1.0000 -0.0516123781
C   C29       1.0  0.99590  0.75792  0.70320  1.0000 -0.0516123781
C   C30       1.0  0.70320  0.99590  0.75792  1.0000 -0.0516123781
C   C31       1.0  0.22218  0.33240  0.94670  1.0000 -0.1596355627
C   C32       1.0  0.94670  0.22218  0.33240  1.0000 -0.1596355627
C   C33       1.0  0.33240  0.94670  0.22218  1.0000 -0.1596355627
C   C34       1.0  0.77782  0.66760  0.05330  1.0000 -0.1596355627
C   C35       1.0  0.05330  0.77782  0.66760  1.0000 -0.1596355627
C   C36       1.0  0.66760  0.05330  0.77782  1.0000 -0.1596355627
C   C37       1.0  0.29468  0.38840  0.94300  1.0000 0.0476779637
C   C38       1.0  0.94300  0.29468  0.38840  1.0000 0.0476779637
C   C39       1.0  0.38840  0.94300  0.29468  1.0000 0.0476779637
C   C40       1.0  0.70532  0.61160  0.05700  1.0000 0.0476779637
C   C41       1.0  0.05700  0.70532  0.61160  1.0000 0.0476779637
C   C42       1.0  0.61160  0.05700  0.70532  1.0000 0.0476779637
C   C43       1.0  0.72328  0.44370  0.24420  1.0000 0.0733125828
C   C44       1.0  0.24420  0.72328  0.44370  1.0000 0.0733125828
C   C45       1.0  0.44370  0.24420  0.72328  1.0000 0.0733125828
C   C46       1.0  0.27672  0.55630  0.75580  1.0000 0.0733125828
C   C47       1.0  0.75580  0.27672  0.55630  1.0000 0.0733125828
C   C48       1.0  0.55630  0.75580  0.27672  1.0000 0.0733125828
C   C49       1.0  0.81618  0.51310  0.28260  1.0000 -0.206024832
C   C50       1.0  0.28260  0.81618  0.51310  1.0000 -0.206024832
C   C51       1.0  0.51310  0.28260  0.81618  1.0000 -0.206024832
C   C52       1.0  0.18382  0.48690  0.71740  1.0000 -0.206024832
C   C53       1.0  0.71740  0.18382  0.48690  1.0000 -0.206024832
C   C54       1.0  0.48690  0.71740  0.18382  1.0000 -0.206024832
C   C55       1.0  0.89338  0.52440  0.35250  1.0000 0.0417247803
C   C56       1.0  0.35250  0.89338  0.52440  1.0000 0.0417247803
C   C57       1.0  0.52440  0.35250  0.89338  1.0000 0.0417247803
C   C58       1.0  0.10662  0.47560  0.64750  1.0000 0.0417247803
C   C59       1.0  0.64750  0.10662  0.47560  1.0000 0.0417247803
C   C60       1.0  0.47560  0.64750  0.10662  1.0000 0.0417247803
C   C61       1.0  0.79318  0.39780  0.34230  1.0000 0.0417247803
C   C62       1.0  0.34230  0.79318  0.39780  1.0000 0.0417247803
C   C63       1.0  0.39780  0.34230  0.79318  1.0000 0.0417247803
C   C64       1.0  0.20682  0.60220  0.65770  1.0000 0.0417247803
C   C65       1.0  0.65770  0.20682  0.60220  1.0000 0.0417247803
C   C66       1.0  0.60220  0.65770  0.20682  1.0000 0.0417247803
C   C67       1.0  0.71328  0.38260  0.27300  1.0000 -0.1942160182
C   C68       1.0  0.27300  0.71328  0.38260  1.0000 -0.1942160182
C   C69       1.0  0.38260  0.27300  0.71328  1.0000 -0.1942160182
C   C70       1.0  0.28672  0.61740  0.72700  1.0000 -0.1942160182
C   C71       1.0  0.72700  0.28672  0.61740  1.0000 -0.1942160182
C   C72       1.0  0.61740  0.72700  0.28672  1.0000 -0.1942160182
C   C73       1.0  0.99602  0.40320  0.09190  1.0000 0.204146945
C   C74       1.0  0.40320  0.09190  0.99602  1.0000 0.204146945
C   C75       1.0  0.09190  0.99602  0.40320  1.0000 0.204146945
C   C76       1.0  0.00398  0.59680  0.90810  1.0000 0.204146945
C   C77       1.0  0.59680  0.90810  0.00398  1.0000 0.204146945
C   C78       1.0  0.90810  0.00398  0.59680  1.0000 0.204146945
C   C79       1.0  0.85882  0.32270  0.06150  1.0000 0.2509148838
C   C80       1.0  0.32270  0.06150  0.85882  1.0000 0.2509148838
C   C81       1.0  0.06150  0.85882  0.32270  1.0000 0.2509148838
C   C82       1.0  0.14118  0.67730  0.93850  1.0000 0.2509148838
C   C83       1.0  0.67730  0.93850  0.14118  1.0000 0.2509148838
C   C84       1.0  0.93850  0.14118  0.67730  1.0000 0.2509148838
C   C85       1.0  0.09722  0.45400  0.12260  1.0000 0.1656694695
C   C86       1.0  0.45400  0.12260  0.09722  1.0000 0.1656694695
C   C87       1.0  0.12260  0.09722  0.45400  1.0000 0.1656694695
C   C88       1.0  0.90278  0.54600  0.87740  1.0000 0.1656694695
C   C89       1.0  0.54600  0.87740  0.90278  1.0000 0.1656694695
C   C90       1.0  0.87740  0.90278  0.54600  1.0000 0.1656694695
C   C91       1.0  0.16692  0.44660  0.18090  1.0000 -0.1677878287
C   C92       1.0  0.44660  0.18090  0.16692  1.0000 -0.1677878287
C   C93       1.0  0.18090  0.16692  0.44660  1.0000 -0.1677878287
C   C94       1.0  0.83308  0.55340  0.81910  1.0000 -0.1677878287
C   C95       1.0  0.55340  0.81910  0.83308  1.0000 -0.1677878287
C   C96       1.0  0.81910  0.83308  0.55340  1.0000 -0.1677878287
C   C97       1.0  0.25792  0.49590  0.20320  1.0000 -0.0516123781
C   C98       1.0  0.49590  0.20320  0.25792  1.0000 -0.0516123781
C   C99       1.0  0.20320  0.25792  0.49590  1.0000 -0.0516123781
C   C100      1.0  0.74208  0.50410  0.79680  1.0000 -0.0516123781
C   C101      1.0  0.50410  0.79680  0.74208  1.0000 -0.0516123781
C   C102      1.0  0.79680  0.74208  0.50410  1.0000 -0.0516123781
C   C103      1.0  0.27782  0.55330  0.16760  1.0000 -0.1596355627
C   C104      1.0  0.55330  0.16760  0.27782  1.0000 -0.1596355627
C   C105      1.0  0.16760  0.27782  0.55330  1.0000 -0.1596355627
C   C106      1.0  0.72218  0.44670  0.83240  1.0000 -0.1596355627
C   C107      1.0  0.44670  0.83240  0.72218  1.0000 -0.1596355627
C   C108      1.0  0.83240  0.72218  0.44670  1.0000 -0.1596355627
C   C109      1.0  0.20532  0.55700  0.11160  1.0000 0.0476779637
C   C110      1.0  0.55700  0.11160  0.20532  1.0000 0.0476779637
C   C111      1.0  0.11160  0.20532  0.55700  1.0000 0.0476779637
C   C112      1.0  0.79468  0.44300  0.88840  1.0000 0.0476779637
C   C113      1.0  0.44300  0.88840  0.79468  1.0000 0.0476779637
C   C114      1.0  0.88840  0.79468  0.44300  1.0000 0.0476779637
C   C115      1.0  0.77672  0.25580  0.05630  1.0000 0.0733125828
C   C116      1.0  0.25580  0.05630  0.77672  1.0000 0.0733125828
C   C117      1.0  0.05630  0.77672  0.25580  1.0000 0.0733125828
C   C118      1.0  0.22328  0.74420  0.94370  1.0000 0.0733125828
C   C119      1.0  0.74420  0.94370  0.22328  1.0000 0.0733125828
C   C120      1.0  0.94370  0.22328  0.74420  1.0000 0.0733125828
C   C121      1.0  0.68382  0.21740  0.98690  1.0000 -0.206024832
C   C122      1.0  0.21740  0.98690  0.68382  1.0000 -0.206024832
C   C123      1.0  0.98690  0.68382  0.21740  1.0000 -0.206024832
C   C124      1.0  0.31618  0.78260  0.01310  1.0000 -0.206024832
C   C125      1.0  0.78260  0.01310  0.31618  1.0000 -0.206024832
C   C126      1.0  0.01310  0.31618  0.78260  1.0000 -0.206024832
C   C127      1.0  0.60662  0.14750  0.97560  1.0000 0.0417247803
C   C128      1.0  0.14750  0.97560  0.60662  1.0000 0.0417247803
C   C129      1.0  0.97560  0.60662  0.14750  1.0000 0.0417247803
C   C130      1.0  0.39338  0.85250  0.02440  1.0000 0.0417247803
C   C131      1.0  0.85250  0.02440  0.39338  1.0000 0.0417247803
C   C132      1.0  0.02440  0.39338  0.85250  1.0000 0.0417247803
C   C133      1.0  0.70682  0.15770  0.10220  1.0000 0.0417247803
C   C134      1.0  0.15770  0.10220  0.70682  1.0000 0.0417247803
C   C135      1.0  0.10220  0.70682  0.15770  1.0000 0.0417247803
C   C136      1.0  0.29318  0.84230  0.89780  1.0000 0.0417247803
C   C137      1.0  0.84230  0.89780  0.29318  1.0000 0.0417247803
C   C138      1.0  0.89780  0.29318  0.84230  1.0000 0.0417247803
C   C139      1.0  0.78672  0.22700  0.11740  1.0000 -0.1942160182
C   C140      1.0  0.22700  0.11740  0.78672  1.0000 -0.1942160182
C   C141      1.0  0.11740  0.78672  0.22700  1.0000 -0.1942160182
C   C142      1.0  0.21328  0.77300  0.88260  1.0000 -0.1942160182
C   C143      1.0  0.77300  0.88260  0.21328  1.0000 -0.1942160182
C   C144      1.0  0.88260  0.21328  0.77300  1.0000 -0.1942160182
N   N1        1.0  0.56238  0.46740  0.08440  1.0000 -0.1677878287
N   N2        1.0  0.08440  0.56238  0.46740  1.0000 -0.1677878287
N   N3        1.0  0.46740  0.08440  0.56238  1.0000 -0.1677878287
N   N4        1.0  0.43762  0.53260  0.91560  1.0000 -0.1677878287
N   N5        1.0  0.91560  0.43762  0.53260  1.0000 -0.1677878287
N   N6        1.0  0.53260  0.91560  0.43762  1.0000 -0.1677878287
N   N7        1.0  0.65108  0.48720  0.13820  1.0000 -0.2799930253
N   N8        1.0  0.13820  0.65108  0.48720  1.0000 -0.2799930253
N   N9        1.0  0.48720  0.13820  0.65108  1.0000 -0.2799930253
N   N10       1.0  0.34892  0.51280  0.86180  1.0000 -0.2799930253
N   N11       1.0  0.86180  0.34892  0.51280  1.0000 -0.2799930253
N   N12       1.0  0.51280  0.86180  0.34892  1.0000 -0.2799930253
N   N13       1.0  0.55068  0.38760  0.15460  1.0000 -0.4057922291
N   N14       1.0  0.15460  0.55068  0.38760  1.0000 -0.4057922291
N   N15       1.0  0.38760  0.15460  0.55068  1.0000 -0.4057922291
N   N16       1.0  0.44932  0.61240  0.84540  1.0000 -0.4057922291
N   N17       1.0  0.84540  0.44932  0.61240  1.0000 -0.4057922291
N   N18       1.0  0.61240  0.84540  0.44932  1.0000 -0.4057922291
N   N19       1.0  0.38488  0.41230  0.99240  1.0000 -0.1677878287
N   N20       1.0  0.99240  0.38488  0.41230  1.0000 -0.1677878287
N   N21       1.0  0.41230  0.99240  0.38488  1.0000 -0.1677878287
N   N22       1.0  0.61512  0.58770  0.00760  1.0000 -0.1677878287
N   N23       1.0  0.00760  0.61512  0.58770  1.0000 -0.1677878287
N   N24       1.0  0.58770  0.00760  0.61512  1.0000 -0.1677878287
N   N25       1.0  0.88498  0.46870  0.38510  1.0000 -0.1475742003
N   N26       1.0  0.38510  0.88498  0.46870  1.0000 -0.1475742003
N   N27       1.0  0.46870  0.38510  0.88498  1.0000 -0.1475742003
N   N28       1.0  0.11502  0.53130  0.61490  1.0000 -0.1475742003
N   N29       1.0  0.61490  0.11502  0.53130  1.0000 -0.1475742003
N   N30       1.0  0.53130  0.61490  0.11502  1.0000 -0.1475742003
N   N31       1.0  0.93762  0.41560  0.03260  1.0000 -0.1677878287
N   N32       1.0  0.41560  0.03260  0.93762  1.0000 -0.1677878287
N   N33       1.0  0.03260  0.93762  0.41560  1.0000 -0.1677878287
N   N34       1.0  0.06238  0.58440  0.96740  1.0000 -0.1677878287
N   N35       1.0  0.58440  0.96740  0.06238  1.0000 -0.1677878287
N   N36       1.0  0.96740  0.06238  0.58440  1.0000 -0.1677878287
N   N37       1.0  0.84892  0.36180  0.01280  1.0000 -0.2799930253
N   N38       1.0  0.36180  0.01280  0.84892  1.0000 -0.2799930253
N   N39       1.0  0.01280  0.84892  0.36180  1.0000 -0.2799930253
N   N40       1.0  0.15108  0.63820  0.98720  1.0000 -0.2799930253
N   N41       1.0  0.63820  0.98720  0.15108  1.0000 -0.2799930253
N   N42       1.0  0.98720  0.15108  0.63820  1.0000 -0.2799930253
N   N43       1.0  0.94932  0.34540  0.11240  1.0000 -0.4057922291
N   N44       1.0  0.34540  0.11240  0.94932  1.0000 -0.4057922291
N   N45       1.0  0.11240  0.94932  0.34540  1.0000 -0.4057922291
N   N46       1.0  0.05068  0.65460  0.88760  1.0000 -0.4057922291
N   N47       1.0  0.65460  0.88760  0.05068  1.0000 -0.4057922291
N   N48       1.0  0.88760  0.05068  0.65460  1.0000 -0.4057922291
N   N49       1.0  0.11512  0.50760  0.08770  1.0000 -0.1677878287
N   N50       1.0  0.50760  0.08770  0.11512  1.0000 -0.1677878287
N   N51       1.0  0.08770  0.11512  0.50760  1.0000 -0.1677878287
N   N52       1.0  0.88488  0.49240  0.91230  1.0000 -0.1677878287
N   N53       1.0  0.49240  0.91230  0.88488  1.0000 -0.1677878287
N   N54       1.0  0.91230  0.88488  0.49240  1.0000 -0.1677878287
N   N55       1.0  0.61502  0.11490  0.03130  1.0000 -0.1475742003
N   N56       1.0  0.11490  0.03130  0.61502  1.0000 -0.1475742003
N   N57       1.0  0.03130  0.61502  0.11490  1.0000 -0.1475742003
N   N58       1.0  0.38498  0.88510  0.96870  1.0000 -0.1475742003
N   N59       1.0  0.88510  0.96870  0.38498  1.0000 -0.1475742003
N   N60       1.0  0.96870  0.38498  0.88510  1.0000 -0.1475742003
