# DDEC6 charges by PACMAN v1.1 (https://github.com/mtap-research/PACMAN-charge/)
data_CAXVOO_ASR_pacman
_symmetry_space_group_name_H-M   'P 1'
_cell_length_a   15.24510000
_cell_length_b   15.24510000
_cell_length_c   15.24510000
_cell_angle_alpha   117.75900000
_cell_angle_beta   117.75900000
_cell_angle_gamma   117.75900000
_symmetry_Int_Tables_number   1
_chemical_formula_structural   FeHC4O3
_chemical_formula_sum   'Fe6 H6 C24 O18'
_cell_volume   1359.17286869
_cell_formula_units_Z   6
loop_
 _symmetry_equiv_pos_site_id
 _symmetry_equiv_pos_as_xyz
  1  'x, y, z'
loop_
 _atom_site_type_symbol
 _atom_site_label
 _atom_site_symmetry_multiplicity
 _atom_site_fract_x
 _atom_site_fract_y
 _atom_site_fract_z
 _atom_site_occupancy
 _atom_site_charge
Fe  Fe1  1  0.11080000  0.52310000  0.79000000  1.0 0.8135653778
Fe  Fe2  1  0.52310000  0.79000000  0.11080000  1.0 0.8135653778
Fe  Fe3  1  0.79000000  0.11080000  0.52310000  1.0 0.8135653778
Fe  Fe4  1  0.88920000  0.47690000  0.21000000  1.0 0.8135653778
Fe  Fe5  1  0.47690000  0.21000000  0.88920000  1.0 0.8135653778
Fe  Fe6  1  0.21000000  0.88920000  0.47690000  1.0 0.8135653778
H  H1  1  0.35180000  0.81370000  0.38250000  1.0 0.1018926893
H  H2  1  0.81370000  0.38250000  0.35180000  1.0 0.1018926893
H  H3  1  0.38250000  0.35180000  0.81370000  1.0 0.1018926893
H  H4  1  0.64820000  0.18630000  0.61750000  1.0 0.1018926893
H  H5  1  0.18630000  0.61750000  0.64820000  1.0 0.1018926893
H  H6  1  0.61750000  0.64820000  0.18630000  1.0 0.1018926893
C  C1  1  0.37640000  0.75710000  0.20150000  1.0 0.5852619454
C  C2  1  0.75710000  0.20150000  0.37640000  1.0 0.5852619454
C  C3  1  0.20150000  0.37640000  0.75710000  1.0 0.5852619454
C  C4  1  0.62360000  0.24290000  0.79850000  1.0 0.5852619454
C  C5  1  0.24290000  0.79850000  0.62360000  1.0 0.5852619454
C  C6  1  0.79850000  0.62360000  0.24290000  1.0 0.5852619454
C  C7  1  0.15870000  0.60750000  0.07080000  1.0 -0.1722929856
C  C8  1  0.60750000  0.07080000  0.15870000  1.0 -0.1722929856
C  C9  1  0.07080000  0.15870000  0.60750000  1.0 -0.1722929856
C  C10  1  0.84130000  0.39250000  0.92920000  1.0 -0.1722929856
C  C11  1  0.39250000  0.92920000  0.84130000  1.0 -0.1722929856
C  C12  1  0.92920000  0.84130000  0.39250000  1.0 -0.1722929856
C  C13  1  0.96450000  0.42810000  0.86540000  1.0 0.3254691605
C  C14  1  0.42810000  0.86540000  0.96450000  1.0 0.3254691605
C  C15  1  0.86540000  0.96450000  0.42810000  1.0 0.3254691605
C  C16  1  0.03550000  0.57190000  0.13460000  1.0 0.3254691605
C  C17  1  0.57190000  0.13460000  0.03550000  1.0 0.3254691605
C  C18  1  0.13460000  0.03550000  0.57190000  1.0 0.3254691605
C  C19  1  0.20110000  0.67490000  0.20700000  1.0 -0.1722929856
C  C20  1  0.67490000  0.20700000  0.20110000  1.0 -0.1722929856
C  C21  1  0.20700000  0.20110000  0.67490000  1.0 -0.1722929856
C  C22  1  0.79890000  0.32510000  0.79300000  1.0 -0.1722929856
C  C23  1  0.32510000  0.79300000  0.79890000  1.0 -0.1722929856
C  C24  1  0.79300000  0.79890000  0.32510000  1.0 -0.1722929856
O  O1  1  0.32000000  0.67130000  0.06770000  1.0 -0.5170281883
O  O2  1  0.67130000  0.06770000  0.32000000  1.0 -0.5170281883
O  O3  1  0.06770000  0.32000000  0.67130000  1.0 -0.5170281883
O  O4  1  0.68000000  0.32870000  0.93230000  1.0 -0.5170281883
O  O5  1  0.32870000  0.93230000  0.68000000  1.0 -0.5170281883
O  O6  1  0.93230000  0.68000000  0.32870000  1.0 -0.5170281883
O  O7  1  0.52840000  0.89830000  0.36730000  1.0 -0.398778315
O  O8  1  0.89830000  0.36730000  0.52840000  1.0 -0.398778315
O  O9  1  0.36730000  0.52840000  0.89830000  1.0 -0.398778315
O  O10  1  0.47160000  0.10170000  0.63270000  1.0 -0.398778315
O  O11  1  0.10170000  0.63270000  0.47160000  1.0 -0.398778315
O  O12  1  0.63270000  0.47160000  0.10170000  1.0 -0.398778315
O  O13  1  0.92780000  0.36490000  0.74030000  1.0 -0.5657966986
O  O14  1  0.36490000  0.74030000  0.92780000  1.0 -0.5657966986
O  O15  1  0.74030000  0.92780000  0.36490000  1.0 -0.5657966986
O  O16  1  0.07220000  0.63510000  0.25970000  1.0 -0.5657966986
O  O17  1  0.63510000  0.25970000  0.07220000  1.0 -0.5657966986
O  O18  1  0.25970000  0.07220000  0.63510000  1.0 -0.5657966986
