# DDEC6 charges by PACMAN v1.1 (https://github.com/mtap-research/PACMAN-charge/)
data_CAXVII_ASR_pacman
_symmetry_space_group_name_H-M   'P 1'
_cell_length_a   15.24030000
_cell_length_b   15.24030000
_cell_length_c   15.24030000
_cell_angle_alpha   117.76800000
_cell_angle_beta   117.76800000
_cell_angle_gamma   117.76800000
_symmetry_Int_Tables_number   1
_chemical_formula_structural   FeHC4O3
_chemical_formula_sum   'Fe6 H6 C24 O18'
_cell_volume   1355.25951321
_cell_formula_units_Z   6
loop_
 _symmetry_equiv_pos_site_id
 _symmetry_equiv_pos_as_xyz
  1  'x, y, z'
loop_
 _atom_site_type_symbol
 _atom_site_label
 _atom_site_symmetry_multiplicity
 _atom_site_fract_x
 _atom_site_fract_y
 _atom_site_fract_z
 _atom_site_occupancy
 _atom_site_charge
Fe  Fe1  1  0.11100000  0.52360000  0.79020000  1.0 0.7238336526
Fe  Fe2  1  0.52360000  0.79020000  0.11100000  1.0 0.7238336526
Fe  Fe3  1  0.79020000  0.11100000  0.52360000  1.0 0.7238336526
Fe  Fe4  1  0.88900000  0.47640000  0.20980000  1.0 0.7238336526
Fe  Fe5  1  0.47640000  0.20980000  0.88900000  1.0 0.7238336526
Fe  Fe6  1  0.20980000  0.88900000  0.47640000  1.0 0.7238336526
H  H1  1  0.34170000  0.80390000  0.37240000  1.0 0.1161274833
H  H2  1  0.80390000  0.37240000  0.34170000  1.0 0.1161274833
H  H3  1  0.37240000  0.34170000  0.80390000  1.0 0.1161274833
H  H4  1  0.65830000  0.19610000  0.62760000  1.0 0.1161274833
H  H5  1  0.19610000  0.62760000  0.65830000  1.0 0.1161274833
H  H6  1  0.62760000  0.65830000  0.19610000  1.0 0.1161274833
C  C1  1  0.37140000  0.75400000  0.20060000  1.0 0.558327995
C  C2  1  0.75400000  0.20060000  0.37140000  1.0 0.558327995
C  C3  1  0.20060000  0.37140000  0.75400000  1.0 0.558327995
C  C4  1  0.62860000  0.24600000  0.79940000  1.0 0.558327995
C  C5  1  0.24600000  0.79940000  0.62860000  1.0 0.558327995
C  C6  1  0.79940000  0.62860000  0.24600000  1.0 0.558327995
C  C7  1  0.16190000  0.61070000  0.07250000  1.0 -0.1512682962
C  C8  1  0.61070000  0.07250000  0.16190000  1.0 -0.1512682962
C  C9  1  0.07250000  0.16190000  0.61070000  1.0 -0.1512682962
C  C10  1  0.83810000  0.38930000  0.92750000  1.0 -0.1512682962
C  C11  1  0.38930000  0.92750000  0.83810000  1.0 -0.1512682962
C  C12  1  0.92750000  0.83810000  0.38930000  1.0 -0.1512682962
C  C13  1  0.95420000  0.41880000  0.85500000  1.0 0.3580463252
C  C14  1  0.41880000  0.85500000  0.95420000  1.0 0.3580463252
C  C15  1  0.85500000  0.95420000  0.41880000  1.0 0.3580463252
C  C16  1  0.04580000  0.58120000  0.14500000  1.0 0.3580463252
C  C17  1  0.58120000  0.14500000  0.04580000  1.0 0.3580463252
C  C18  1  0.14500000  0.04580000  0.58120000  1.0 0.3580463252
C  C19  1  0.20240000  0.67490000  0.20570000  1.0 -0.1940778124
C  C20  1  0.67490000  0.20570000  0.20240000  1.0 -0.1940778124
C  C21  1  0.20570000  0.20240000  0.67490000  1.0 -0.1940778124
C  C22  1  0.79760000  0.32510000  0.79430000  1.0 -0.1940778124
C  C23  1  0.32510000  0.79430000  0.79760000  1.0 -0.1940778124
C  C24  1  0.79430000  0.79760000  0.32510000  1.0 -0.1940778124
O  O1  1  0.33200000  0.68550000  0.08050000  1.0 -0.4977608425
O  O2  1  0.68550000  0.08050000  0.33200000  1.0 -0.4977608425
O  O3  1  0.08050000  0.33200000  0.68550000  1.0 -0.4977608425
O  O4  1  0.66800000  0.31450000  0.91950000  1.0 -0.4977608425
O  O5  1  0.31450000  0.91950000  0.66800000  1.0 -0.4977608425
O  O6  1  0.91950000  0.66800000  0.31450000  1.0 -0.4977608425
O  O7  1  0.52640000  0.90240000  0.37120000  1.0 -0.4161571997
O  O8  1  0.90240000  0.37120000  0.52640000  1.0 -0.4161571997
O  O9  1  0.37120000  0.52640000  0.90240000  1.0 -0.4120199758
O  O10  1  0.47360000  0.09760000  0.62880000  1.0 -0.4161571997
O  O11  1  0.09760000  0.62880000  0.47360000  1.0 -0.4161571997
O  O12  1  0.62880000  0.47360000  0.09760000  1.0 -0.4161571997
O  O13  1  0.92300000  0.36700000  0.74000000  1.0 -0.4977608425
O  O14  1  0.36700000  0.74000000  0.92300000  1.0 -0.4977608425
O  O15  1  0.74000000  0.92300000  0.36700000  1.0 -0.4977608425
O  O16  1  0.07700000  0.63300000  0.26000000  1.0 -0.4977608425
O  O17  1  0.63300000  0.26000000  0.07700000  1.0 -0.4977608425
O  O18  1  0.26000000  0.07700000  0.63300000  1.0 -0.4977608425
