# DDEC6 charges by PACMAN v1.1 (https://github.com/mtap-research/PACMAN-charge/)
data_2007[Co][nan]3[ASR]2
_chemical_formula_sum              "Co6 H12 C28 N4 O20"
_cell_length_a       11.1357
_cell_length_b       11.1357
_cell_length_c       10.8123
_cell_angle_alpha    77.8431
_cell_angle_beta     102.157
_cell_angle_gamma    103.708

_symmetry_space_group_name_H-M    "P 1"
_symmetry_Int_Tables_number       1

loop_
  _symmetry_equiv_pos_as_xyz
  'x, y, z'

loop_
  _atom_site_type_symbol
  _atom_site_label
  _atom_site_symmetry_multiplicity
  _atom_site_fract_x
  _atom_site_fract_y
  _atom_site_fract_z
  _atom_site_occupancy
  _atom_site_charge
Co  Co1       1.0  0.09587  0.09587  0.75000  1.0000 1.1123470993
Co  Co2       1.0  0.90413  0.90413  0.25000  1.0000 1.1123470993
Co  Co3       1.0  0.93988  0.12092  0.95072  1.0000 0.979605648
Co  Co4       1.0  0.12092  0.93988  0.54928  1.0000 0.979605648
Co  Co5       1.0  0.06012  0.87908  0.04928  1.0000 0.979605648
Co  Co6       1.0  0.87908  0.06012  0.45072  1.0000 0.979605648
H   H1        1.0  0.48160  0.14780  0.94110  1.0000 0.1426487298
H   H2        1.0  0.14780  0.48160  0.55890  1.0000 0.1426487298
H   H3        1.0  0.51840  0.85220  0.05890  1.0000 0.1426487298
H   H4        1.0  0.85220  0.51840  0.44110  1.0000 0.1426487298
H   H5        1.0  0.69330  0.17290  0.02250  1.0000 0.1107580972
H   H6        1.0  0.17290  0.69330  0.47750  1.0000 0.1107580972
H   H7        1.0  0.30670  0.82710  0.97750  1.0000 0.1107580972
H   H8        1.0  0.82710  0.30670  0.52250  1.0000 0.1107580972
H   H9        1.0  0.54840  0.04060  0.63440  1.0000 0.1517090419
H   H10       1.0  0.04060  0.54840  0.86560  1.0000 0.1517090419
H   H11       1.0  0.45160  0.95940  0.36560  1.0000 0.1517090419
H   H12       1.0  0.95940  0.45160  0.13440  1.0000 0.1517090419
C   C1        1.0  0.53570  0.12990  0.89580  1.0000 -0.154013124
C   C2        1.0  0.12990  0.53570  0.60420  1.0000 -0.154013124
C   C3        1.0  0.46430  0.87010  0.10420  1.0000 -0.154013124
C   C4        1.0  0.87010  0.46430  0.39580  1.0000 -0.154013124
C   C5        1.0  0.66360  0.14460  0.94440  1.0000 0.1107580972
C   C6        1.0  0.14460  0.66360  0.55560  1.0000 0.1107580972
C   C7        1.0  0.33640  0.85540  0.05560  1.0000 0.1107580972
C   C8        1.0  0.85540  0.33640  0.44440  1.0000 0.1107580972
C   C9        1.0  0.48970  0.08870  0.78050  1.0000 0.0280205433
C   C10       1.0  0.08870  0.48970  0.71950  1.0000 0.0280205433
C   C11       1.0  0.51030  0.91130  0.21950  1.0000 0.0280205433
C   C12       1.0  0.91130  0.51030  0.28050  1.0000 0.0280205433
C   C13       1.0  0.57550  0.06650  0.71370  1.0000 -0.142068491
C   C14       1.0  0.06650  0.57550  0.78630  1.0000 -0.142068491
C   C15       1.0  0.42450  0.93350  0.28630  1.0000 -0.142068491
C   C16       1.0  0.93350  0.42450  0.21370  1.0000 -0.142068491
C   C17       1.0  0.35090  0.06730  0.72890  1.0000 0.5659597994
C   C18       1.0  0.06730  0.35090  0.77110  1.0000 0.5659597994
C   C19       1.0  0.64910  0.93270  0.27110  1.0000 0.5659597994
C   C20       1.0  0.93270  0.64910  0.22890  1.0000 0.5659597994
C   C21       1.0  0.70050  0.08410  0.76800  1.0000 0.1013908343
C   C22       1.0  0.08410  0.70050  0.73200  1.0000 0.1013908343
C   C23       1.0  0.29950  0.91590  0.23200  1.0000 0.1013908343
C   C24       1.0  0.91590  0.29950  0.26800  1.0000 0.1013908343
C   C25       1.0  0.79840  0.06320  0.70270  1.0000 0.5659597994
C   C26       1.0  0.06320  0.79840  0.79730  1.0000 0.5659597994
C   C27       1.0  0.20160  0.93680  0.29730  1.0000 0.5659597994
C   C28       1.0  0.93680  0.20160  0.20270  1.0000 0.5659597994
N   N1        1.0  0.74450  0.12010  0.88380  1.0000 -0.2346481874
N   N2        1.0  0.12010  0.74450  0.61620  1.0000 -0.2346481874
N   N3        1.0  0.25550  0.87990  0.11620  1.0000 -0.2346481874
N   N4        1.0  0.87990  0.25550  0.38380  1.0000 -0.2346481874
O   O1        1.0  0.10530  0.06310  0.94860  1.0000 -0.7679432153
O   O2        1.0  0.06310  0.10530  0.55140  1.0000 -0.7679432153
O   O3        1.0  0.89470  0.93690  0.05140  1.0000 -0.7679432153
O   O4        1.0  0.93690  0.89470  0.44860  1.0000 -0.7679432153
O   O5        1.0  0.90640  0.06820  0.76830  1.0000 -0.5242868631
O   O6        1.0  0.06820  0.90640  0.73170  1.0000 -0.5242868631
O   O7        1.0  0.09360  0.93180  0.23170  1.0000 -0.5242868631
O   O8        1.0  0.93180  0.09360  0.26830  1.0000 -0.5242868631
O   O9        1.0  0.77070  0.04610  0.58920  1.0000 -0.4774389236
O   O10       1.0  0.04610  0.77070  0.91080  1.0000 -0.4774389236
O   O11       1.0  0.22930  0.95390  0.41080  1.0000 -0.4774389236
O   O12       1.0  0.95390  0.22930  0.08920  1.0000 -0.4774389236
O   O13       1.0  0.28890  0.12430  0.77160  1.0000 -0.502027598
O   O14       1.0  0.12430  0.28890  0.72840  1.0000 -0.502027598
O   O15       1.0  0.71110  0.87570  0.22840  1.0000 -0.502027598
O   O16       1.0  0.87570  0.71110  0.27160  1.0000 -0.502027598
O   O17       1.0  0.30980  0.99440  0.65060  1.0000 -0.5105577378
O   O18       1.0  0.99440  0.30980  0.84940  1.0000 -0.5105577378
O   O19       1.0  0.69020  0.00560  0.34940  1.0000 -0.5105577378
O   O20       1.0  0.00560  0.69020  0.15060  1.0000 -0.5105577378
