# DDEC6 charges by PACMAN v1.1 (https://github.com/mtap-research/PACMAN-charge/)
data_CUMDOE_ASR_pacman
_symmetry_space_group_name_H-M   'P 1'
_cell_length_a   5.75400000
_cell_length_b   14.12590000
_cell_length_c   21.15600000
_cell_angle_alpha   90.00000000
_cell_angle_beta   90.14000000
_cell_angle_gamma   90.00000000
_symmetry_Int_Tables_number   1
_chemical_formula_structural   NdP2H20C10(NO3)2
_chemical_formula_sum   'Nd4 P8 H80 C40 N8 O24'
_cell_volume   1719.56361412
_cell_formula_units_Z   4
loop_
 _symmetry_equiv_pos_site_id
 _symmetry_equiv_pos_as_xyz
  1  'x, y, z'
loop_
 _atom_site_type_symbol
 _atom_site_label
 _atom_site_symmetry_multiplicity
 _atom_site_fract_x
 _atom_site_fract_y
 _atom_site_fract_z
 _atom_site_occupancy
 _atom_site_charge
Nd  Nd1  1  0.74999000  0.89020000  0.98319000  1.0 2.255397432
Nd  Nd2  1  0.25001000  0.39020000  0.51681000  1.0 2.2543495823
Nd  Nd3  1  0.25001000  0.10980000  0.01681000  1.0 2.2543495823
Nd  Nd4  1  0.74999000  0.60980000  0.48319000  1.0 2.255397432
P  P1  1  0.75010000  0.15660000  0.94580000  1.0 1.2683849265
P  P2  1  0.24990000  0.65660000  0.55420000  1.0 1.2683849265
P  P3  1  0.24990000  0.84340000  0.05420000  1.0 1.2683849265
P  P4  1  0.75010000  0.34340000  0.44580000  1.0 1.2683849265
P  P5  1  0.75040000  0.44850000  0.61250000  1.0 1.231776916
P  P6  1  0.24960000  0.94850000  0.88750000  1.0 1.231776916
P  P7  1  0.24960000  0.55150000  0.38750000  1.0 1.231776916
P  P8  1  0.75040000  0.05150000  0.11250000  1.0 1.231776916
H  H1  1  0.92310000  0.20340000  0.74140000  1.0 0.0711763754
H  H2  1  0.07690000  0.70340000  0.75860000  1.0 0.0711763754
H  H3  1  0.07690000  0.79660000  0.25860000  1.0 0.0711763754
H  H4  1  0.92310000  0.29660000  0.24140000  1.0 0.0711763754
H  H5  1  0.67750000  0.15070000  0.74390000  1.0 0.0804672516
H  H6  1  0.32250000  0.65070000  0.75610000  1.0 0.0804672516
H  H7  1  0.32250000  0.84930000  0.25610000  1.0 0.0804672516
H  H8  1  0.67750000  0.34930000  0.24390000  1.0 0.0804672516
H  H9  1  0.48030000  0.29190000  0.72480000  1.0 0.0804672516
H  H10  1  0.51970000  0.79190000  0.77520000  1.0 0.0804672516
H  H11  1  0.51970000  0.70810000  0.27520000  1.0 0.0804672516
H  H12  1  0.48030000  0.20810000  0.22480000  1.0 0.0804672516
H  H13  1  0.67480000  0.27980000  0.67140000  1.0 0.0892205503
H  H14  1  0.32520000  0.77980000  0.82860000  1.0 0.0892205503
H  H15  1  0.32520000  0.72020000  0.32860000  1.0 0.0892205503
H  H16  1  0.67480000  0.22020000  0.17140000  1.0 0.0892205503
H  H17  1  0.85350000  0.45640000  0.81270000  1.0 0.0614042426
H  H18  1  0.14650000  0.95640000  0.68730000  1.0 0.0614042426
H  H19  1  0.14650000  0.54360000  0.18730000  1.0 0.0614042426
H  H20  1  0.85350000  0.04360000  0.31270000  1.0 0.0614042426
H  H21  1  0.59680000  0.41390000  0.81880000  1.0 0.0804672516
H  H22  1  0.40320000  0.91390000  0.68120000  1.0 0.0804672516
H  H23  1  0.40320000  0.58610000  0.18120000  1.0 0.0804672516
H  H24  1  0.59680000  0.08610000  0.31880000  1.0 0.0804672516
H  H25  1  0.82410000  0.32770000  0.88680000  1.0 0.0804672516
H  H26  1  0.17590000  0.82770000  0.61320000  1.0 0.0804672516
H  H27  1  0.17590000  0.67230000  0.11320000  1.0 0.0804672516
H  H28  1  0.82410000  0.17230000  0.38680000  1.0 0.0804672516
H  H29  1  0.02240000  0.31360000  0.83490000  1.0 0.0804672516
H  H30  1  0.97760000  0.81360000  0.66510000  1.0 0.0804672516
H  H31  1  0.97760000  0.68640000  0.16510000  1.0 0.0804672516
H  H32  1  0.02240000  0.18640000  0.33490000  1.0 0.0804672516
H  H33  1  0.61760000  0.10920000  0.85090000  1.0 0.1334684561
H  H34  1  0.38240000  0.60920000  0.64910000  1.0 0.1334684561
H  H35  1  0.38240000  0.89080000  0.14910000  1.0 0.1334684561
H  H36  1  0.61760000  0.39080000  0.35090000  1.0 0.1334684561
H  H37  1  0.89320000  0.11130000  0.85170000  1.0 0.1334684561
H  H38  1  0.10680000  0.61130000  0.64830000  1.0 0.1334684561
H  H39  1  0.10680000  0.88870000  0.14830000  1.0 0.1334684561
H  H40  1  0.89320000  0.38870000  0.35170000  1.0 0.1334684561
H  H41  1  0.61350000  0.49580000  0.70960000  1.0 0.1334684561
H  H42  1  0.38650000  0.99580000  0.79040000  1.0 0.1334684561
H  H43  1  0.38650000  0.50420000  0.29040000  1.0 0.1334684561
H  H44  1  0.61350000  0.00420000  0.20960000  1.0 0.1334684561
H  H45  1  0.88940000  0.49570000  0.70960000  1.0 0.1334684561
H  H46  1  0.11060000  0.99570000  0.79040000  1.0 0.1334684561
H  H47  1  0.11060000  0.50430000  0.29040000  1.0 0.1334684561
H  H48  1  0.88940000  0.00430000  0.20960000  1.0 0.1334684561
H  H49  1  0.17490000  0.65080000  0.75590000  1.0 0.0804672516
H  H50  1  0.82510000  0.15080000  0.74410000  1.0 0.0804672516
H  H51  1  0.82510000  0.34920000  0.24410000  1.0 0.0804672516
H  H52  1  0.17490000  0.84920000  0.25590000  1.0 0.0804672516
H  H53  1  0.42160000  0.70260000  0.75840000  1.0 0.0711763754
H  H54  1  0.57840000  0.20260000  0.74160000  1.0 0.0711763754
H  H55  1  0.57840000  0.29740000  0.24160000  1.0 0.0711763754
H  H56  1  0.42160000  0.79740000  0.25840000  1.0 0.0711763754
H  H57  1  0.18230000  0.77950000  0.82920000  1.0 0.0892205503
H  H58  1  0.81770000  0.27950000  0.67080000  1.0 0.0892205503
H  H59  1  0.81770000  0.22050000  0.17080000  1.0 0.0892205503
H  H60  1  0.18230000  0.72050000  0.32920000  1.0 0.0892205503
H  H61  1  0.98070000  0.79080000  0.77740000  1.0 0.0804672516
H  H62  1  0.01930000  0.29080000  0.72260000  1.0 0.0804672516
H  H63  1  0.01930000  0.20920000  0.22260000  1.0 0.0804672516
H  H64  1  0.98070000  0.70920000  0.27740000  1.0 0.0804672516
H  H65  1  0.09450000  0.91890000  0.68190000  1.0 0.0804672516
H  H66  1  0.90550000  0.41890000  0.81810000  1.0 0.0804672516
H  H67  1  0.90550000  0.08110000  0.31810000  1.0 0.0804672516
H  H68  1  0.09450000  0.58110000  0.18190000  1.0 0.0804672516
H  H69  1  0.35580000  0.95650000  0.68810000  1.0 0.0614042426
H  H70  1  0.64420000  0.45650000  0.81190000  1.0 0.0614042426
H  H71  1  0.64420000  0.04350000  0.31190000  1.0 0.0614042426
H  H72  1  0.35580000  0.54350000  0.18810000  1.0 0.0614042426
H  H73  1  0.50930000  0.81610000  0.65990000  1.0 0.0892205503
H  H74  1  0.49070000  0.31610000  0.84010000  1.0 0.0892205503
H  H75  1  0.49070000  0.18390000  0.34010000  1.0 0.0892205503
H  H76  1  0.50930000  0.68390000  0.15990000  1.0 0.0892205503
H  H77  1  0.29470000  0.82880000  0.61270000  1.0 0.0711763754
H  H78  1  0.70530000  0.32880000  0.88730000  1.0 0.0711763754
H  H79  1  0.70530000  0.17120000  0.38730000  1.0 0.0711763754
H  H80  1  0.29470000  0.67120000  0.11270000  1.0 0.0711763754
C  C1  1  0.75900000  0.21000000  0.75450000  1.0 -0.1293741955
C  C2  1  0.24100000  0.71000000  0.74550000  1.0 -0.1293741955
C  C3  1  0.24100000  0.79000000  0.24550000  1.0 -0.1293741955
C  C4  1  0.75900000  0.29000000  0.25450000  1.0 -0.1293741955
C  C5  1  0.65000000  0.29070000  0.71710000  1.0 -0.0400727336
C  C6  1  0.35000000  0.79070000  0.78290000  1.0 -0.0400727336
C  C7  1  0.35000000  0.70930000  0.28290000  1.0 -0.0400727336
C  C8  1  0.65000000  0.20930000  0.21710000  1.0 -0.0400727336
C  C9  1  0.75600000  0.40000000  0.80410000  1.0 -0.1350938748
C  C10  1  0.24400000  0.90000000  0.69590000  1.0 -0.1350938748
C  C11  1  0.24400000  0.60000000  0.19590000  1.0 -0.1293741955
C  C12  1  0.75600000  0.10000000  0.30410000  1.0 -0.1293741955
C  C13  1  0.85200000  0.31650000  0.84120000  1.0 -0.0400727336
C  C14  1  0.14800000  0.81650000  0.65880000  1.0 -0.0400727336
C  C15  1  0.14800000  0.68350000  0.15880000  1.0 -0.0400727336
C  C16  1  0.85200000  0.18350000  0.34120000  1.0 -0.0400727336
C  C17  1  0.75300000  0.14850000  0.86280000  1.0 -0.390625007
C  C18  1  0.24700000  0.64850000  0.63720000  1.0 -0.390625007
C  C19  1  0.24700000  0.85150000  0.13720000  1.0 -0.390625007
C  C20  1  0.75300000  0.35150000  0.36280000  1.0 -0.390625007
C  C21  1  0.75100000  0.45770000  0.69790000  1.0 -0.3823859911
C  C22  1  0.24900000  0.95770000  0.80210000  1.0 -0.3823859911
C  C23  1  0.24900000  0.54230000  0.30210000  1.0 -0.3823859911
C  C24  1  0.75100000  0.04230000  0.19790000  1.0 -0.3823859911
C  C25  1  0.25700000  0.71000000  0.74540000  1.0 -0.1293741955
C  C26  1  0.74300000  0.21000000  0.75460000  1.0 -0.1293741955
C  C27  1  0.74300000  0.29000000  0.25460000  1.0 -0.1293741955
C  C28  1  0.25700000  0.79000000  0.24540000  1.0 -0.1293741955
C  C29  1  0.15100000  0.79020000  0.78370000  1.0 -0.0400727336
C  C30  1  0.84900000  0.29020000  0.71630000  1.0 -0.0400727336
C  C31  1  0.84900000  0.20980000  0.21630000  1.0 -0.0400727336
C  C32  1  0.15100000  0.70980000  0.28370000  1.0 -0.0400727336
C  C33  1  0.25300000  0.90200000  0.69610000  1.0 -0.1293741955
C  C34  1  0.74700000  0.40200000  0.80390000  1.0 -0.1293741955
C  C35  1  0.74700000  0.09800000  0.30390000  1.0 -0.1293741955
C  C36  1  0.25300000  0.59800000  0.19610000  1.0 -0.1293741955
C  C37  1  0.33800000  0.81780000  0.65750000  1.0 -0.0400727336
C  C38  1  0.66200000  0.31780000  0.84250000  1.0 -0.0400727336
C  C39  1  0.66200000  0.18220000  0.34250000  1.0 -0.0400727336
C  C40  1  0.33800000  0.68220000  0.15750000  1.0 -0.0400727336
N  N1  1  0.75100000  0.22410000  0.82380000  1.0 0.0400936571
N  N2  1  0.24900000  0.72410000  0.67620000  1.0 0.0400936571
N  N3  1  0.24900000  0.77590000  0.17620000  1.0 0.0400936571
N  N4  1  0.75100000  0.27590000  0.32380000  1.0 0.0400936571
N  N5  1  0.75200000  0.38220000  0.73520000  1.0 0.0162060517
N  N6  1  0.24800000  0.88220000  0.76480000  1.0 0.0162060517
N  N7  1  0.24800000  0.61780000  0.26480000  1.0 0.0162060517
N  N8  1  0.75200000  0.11780000  0.23520000  1.0 0.0162060517
O  O1  1  0.75100000  0.05710000  0.97050000  1.0 -0.9889722834
O  O2  1  0.24900000  0.55710000  0.52950000  1.0 -0.9889722834
O  O3  1  0.24900000  0.94290000  0.02950000  1.0 -0.9889722834
O  O4  1  0.75100000  0.44290000  0.47050000  1.0 -0.9889722834
O  O5  1  0.53100000  0.20750000  0.96560000  1.0 -0.8115359138
O  O6  1  0.46900000  0.70750000  0.53440000  1.0 -0.8115359138
O  O7  1  0.46900000  0.79250000  0.03440000  1.0 -0.8115359138
O  O8  1  0.53100000  0.29250000  0.46560000  1.0 -0.8115359138
O  O9  1  0.96700000  0.20910000  0.96520000  1.0 -0.8115359138
O  O10  1  0.03300000  0.70910000  0.53480000  1.0 -0.8041864704
O  O11  1  0.03300000  0.79090000  0.03480000  1.0 -0.8041864704
O  O12  1  0.96700000  0.29090000  0.46520000  1.0 -0.8041864704
O  O13  1  0.53000000  0.39490000  0.59720000  1.0 -0.8311620425
O  O14  1  0.47000000  0.89490000  0.90280000  1.0 -0.8311620425
O  O15  1  0.47000000  0.60510000  0.40280000  1.0 -0.8311620425
O  O16  1  0.53000000  0.10510000  0.09720000  1.0 -0.8311620425
O  O17  1  0.74900000  0.54730000  0.58770000  1.0 -0.8704314898
O  O18  1  0.25100000  0.04730000  0.91230000  1.0 -0.8704314898
O  O19  1  0.25100000  0.45270000  0.41230000  1.0 -0.8704314898
O  O20  1  0.74900000  0.95270000  0.08770000  1.0 -0.8704314898
O  O21  1  0.96900000  0.39450000  0.59700000  1.0 -0.8311620425
O  O22  1  0.03100000  0.89450000  0.90300000  1.0 -0.8311620425
O  O23  1  0.03100000  0.60550000  0.40300000  1.0 -0.8311620425
O  O24  1  0.96900000  0.10550000  0.09700000  1.0 -0.8311620425
