# DDEC6 charges by PACMAN v1.1 (https://github.com/mtap-research/PACMAN-charge/)
data_CUVGIK_ASR_pacman
_symmetry_space_group_name_H-M   'P 1'
_cell_length_a   5.56550000
_cell_length_b   9.37020000
_cell_length_c   11.75430000
_cell_angle_alpha   94.32100000
_cell_angle_beta   96.73400000
_cell_angle_gamma   100.83700000
_symmetry_Int_Tables_number   1
_chemical_formula_structural   MnH12(C3N)6
_chemical_formula_sum   'Mn1 H12 C18 N6'
_cell_volume   594.91169937
_cell_formula_units_Z   1
loop_
 _symmetry_equiv_pos_site_id
 _symmetry_equiv_pos_as_xyz
  1  'x, y, z'
loop_
 _atom_site_type_symbol
 _atom_site_label
 _atom_site_symmetry_multiplicity
 _atom_site_fract_x
 _atom_site_fract_y
 _atom_site_fract_z
 _atom_site_occupancy
 _atom_site_charge
Mn  Mn1  1  0.00000000  0.00000000  0.00000000  1.0 0.808313844
H  H1  1  0.81940000  0.67550000  0.08680000  1.0 0.1225674275
H  H2  1  0.18060000  0.32450000  0.91320000  1.0 0.1225674275
H  H3  1  0.65500000  0.43120000  0.09010000  1.0 0.1225674275
H  H4  1  0.34500000  0.56880000  0.90990000  1.0 0.1225674275
H  H5  1  0.71140000  0.08710000  0.20890000  1.0 0.1017266038
H  H6  1  0.28860000  0.91290000  0.79110000  1.0 0.1017266038
H  H7  1  0.71940000  0.10160000  0.40390000  1.0 0.1285751101
H  H8  1  0.28060000  0.89840000  0.59610000  1.0 0.1285751101
H  H9  1  0.25130000  0.88430000  0.22510000  1.0 0.1017266038
H  H10  1  0.74870000  0.11570000  0.77490000  1.0 0.1017266038
H  H11  1  0.26860000  0.88740000  0.42000000  1.0 0.1285751101
H  H12  1  0.73140000  0.11260000  0.58000000  1.0 0.1285751101
C  C1  1  0.89270000  0.60560000  0.05175000  1.0 -0.1721227493
C  C2  1  0.10730000  0.39440000  0.94825000  1.0 -0.1721227493
C  C3  1  0.42730000  0.83360000  0.97974000  1.0 0.4132129523
C  C4  1  0.57270000  0.16640000  0.02026000  1.0 0.4132129523
C  C5  1  0.79390000  0.45830000  0.05377000  1.0 -0.1866661336
C  C6  1  0.20610000  0.54170000  0.94623000  1.0 -0.1866661336
C  C7  1  0.99650000  0.99700000  0.43680000  1.0 0.1059027064
C  C8  1  0.00350000  0.00300000  0.56320000  1.0 0.1059027064
C  C9  1  0.10100000  0.64970000  0.99763000  1.0 0.2286336545
C  C10  1  0.89900000  0.35030000  0.00237000  1.0 0.2286336545
C  C11  1  0.82980000  0.04790000  0.25190000  1.0 0.0744546775
C  C12  1  0.17020000  0.95210000  0.74810000  1.0 0.0744546775
C  C13  1  0.83150000  0.05590000  0.37010000  1.0 -0.2039786753
C  C14  1  0.16850000  0.94410000  0.62990000  1.0 -0.2039786753
C  C15  1  0.14150000  0.92980000  0.26110000  1.0 0.0815892677
C  C16  1  0.85850000  0.07020000  0.73890000  1.0 0.0815892677
C  C17  1  0.15350000  0.93120000  0.37930000  1.0 -0.2098953378
C  C18  1  0.84650000  0.06880000  0.62070000  1.0 -0.2098953378
N  N1  1  0.98530000  0.98840000  0.19613000  1.0 -0.2098953378
N  N2  1  0.01470000  0.01160000  0.80387000  1.0 -0.2098953378
N  N3  1  0.63240000  0.86802000  0.96198000  1.0 -0.5568197694
N  N4  1  0.36760000  0.13198000  0.03802000  1.0 -0.5568197694
N  N5  1  0.19960000  0.80200000  0.99812000  1.0 -0.4743104603
N  N6  1  0.80040000  0.19800000  0.00188000  1.0 -0.4743104603
