# DDEC6 charges by PACMAN v1.1 (https://github.com/mtap-research/PACMAN-charge/)
data_CUVGOQ_ASR_pacman
_symmetry_space_group_name_H-M   'P 1'
_cell_length_a   5.61530000
_cell_length_b   9.33360000
_cell_length_c   13.33980000
_cell_angle_alpha   106.03000000
_cell_angle_beta   93.61100000
_cell_angle_gamma   102.05000000
_symmetry_Int_Tables_number   1
_chemical_formula_structural   MnH14(C10N3)2
_chemical_formula_sum   'Mn1 H14 C20 N6'
_cell_volume   651.72611023
_cell_formula_units_Z   1
loop_
 _symmetry_equiv_pos_site_id
 _symmetry_equiv_pos_as_xyz
  1  'x, y, z'
loop_
 _atom_site_type_symbol
 _atom_site_label
 _atom_site_symmetry_multiplicity
 _atom_site_fract_x
 _atom_site_fract_y
 _atom_site_fract_z
 _atom_site_occupancy
 _atom_site_charge
Mn  Mn1  1  0.00000000  0.00000000  0.00000000  1.0 0.8085213838
H  H1  1  0.30100000  0.56800000  0.48600000  1.0 0.1179091004
H  H2  1  0.69900000  0.43200000  0.51400000  1.0 0.1179091004
H  H3  1  0.40600000  0.60630000  0.07040000  1.0 0.1179091004
H  H4  1  0.59400000  0.39370000  0.92960000  1.0 0.127523124
H  H5  1  0.76030000  0.64910000  0.95030000  1.0 0.1179091004
H  H6  1  0.23970000  0.35090000  0.04970000  1.0 0.1179091004
H  H7  1  0.42440000  0.08110000  0.20010000  1.0 0.1003124615
H  H8  1  0.57560000  0.91890000  0.79990000  1.0 0.1003124615
H  H9  1  0.57410000  0.25310000  0.36170000  1.0 0.127523124
H  H10  1  0.42590000  0.74690000  0.63830000  1.0 0.127523124
H  H11  1  0.99800000  0.43760000  0.33910000  1.0 0.127523124
H  H12  1  0.00200000  0.56240000  0.66090000  1.0 0.127523124
H  H13  1  0.85920000  0.25540000  0.18130000  1.0 0.1003124615
H  H14  1  0.14080000  0.74460000  0.81870000  1.0 0.1003124615
C  C1  1  0.43940000  0.85770000  0.03770000  1.0 0.4161419509
C  C2  1  0.56060000  0.14230000  0.96230000  1.0 0.4161419509
C  C3  1  0.10290000  0.65670000  0.01240000  1.0 0.2249179123
C  C4  1  0.89710000  0.34330000  0.98760000  1.0 0.2249179123
C  C5  1  0.24240000  0.56400000  0.04190000  1.0 -0.1877036156
C  C6  1  0.75760000  0.43600000  0.95810000  1.0 -0.1877036156
C  C7  1  0.85760000  0.58980000  0.97040000  1.0 -0.1759913626
C  C8  1  0.14240000  0.41020000  0.02960000  1.0 -0.1759913626
C  C9  1  0.33760000  0.15420000  0.22840000  1.0 0.078027354
C  C10  1  0.66240000  0.84580000  0.77160000  1.0 0.078027354
C  C11  1  0.43080000  0.25840000  0.32550000  1.0 -0.211152936
C  C12  1  0.56920000  0.74160000  0.67450000  1.0 -0.211152936
C  C13  1  0.30840000  0.37170000  0.36880000  1.0 0.1567945419
C  C14  1  0.69160000  0.62830000  0.63120000  1.0 0.1567945419
C  C15  1  0.39850000  0.49270000  0.46890000  1.0 -0.1512001219
C  C16  1  0.60150000  0.50730000  0.53110000  1.0 -0.1512001219
C  C17  1  0.08960000  0.36670000  0.31240000  1.0 -0.211152936
C  C18  1  0.91040000  0.63330000  0.68760000  1.0 -0.211152936
C  C19  1  0.00780000  0.25680000  0.21700000  1.0 0.078027354
C  C20  1  0.99220000  0.74320000  0.78300000  1.0 0.078027354
N  N1  1  0.65510000  0.90370000  0.05100000  1.0 -0.559235728
N  N2  1  0.34490000  0.09630000  0.94900000  1.0 -0.559235728
N  N3  1  0.20110000  0.81490000  0.02380000  1.0 -0.4579137029
N  N4  1  0.79890000  0.18510000  0.97620000  1.0 -0.4579137029
N  N5  1  0.12970000  0.15200000  0.17250000  1.0 -0.2180248859
N  N6  1  0.87030000  0.84800000  0.82750000  1.0 -0.2180248859
