# DDEC6 charges by PACMAN v1.1 (https://github.com/mtap-research/PACMAN-charge/)
data_DAWBOU_ASR_pacman
_symmetry_space_group_name_H-M   'P 1'
_cell_length_a   6.64000000
_cell_length_b   7.67020000
_cell_length_c   26.17920000
_cell_angle_alpha   90.00000000
_cell_angle_beta   90.00000000
_cell_angle_gamma   90.00000000
_symmetry_Int_Tables_number   1
_chemical_formula_structural   NiH7C9N2O5
_chemical_formula_sum   'Ni4 H28 C36 N8 O20'
_cell_volume   1333.31000694
_cell_formula_units_Z   4
loop_
 _symmetry_equiv_pos_site_id
 _symmetry_equiv_pos_as_xyz
  1  'x, y, z'
loop_
 _atom_site_type_symbol
 _atom_site_label
 _atom_site_symmetry_multiplicity
 _atom_site_fract_x
 _atom_site_fract_y
 _atom_site_fract_z
 _atom_site_occupancy
 _atom_site_charge
Ni  Ni1  1  0.99806000  0.75360000  0.28323000  1.0 0.9130716531
Ni  Ni2  1  0.00194000  0.75360000  0.71677000  1.0 0.9130716531
Ni  Ni3  1  0.50194000  0.24640000  0.78323000  1.0 0.9130716531
Ni  Ni4  1  0.49806000  0.24640000  0.21677000  1.0 0.9130716531
H  H1  1  0.61920000  0.68880000  0.38890000  1.0 0.1492471803
H  H2  1  0.38080000  0.68880000  0.61110000  1.0 0.1492471803
H  H3  1  0.88080000  0.31120000  0.88890000  1.0 0.1492471803
H  H4  1  0.11920000  0.31120000  0.11110000  1.0 0.1492471803
H  H5  1  0.98920000  0.90870000  0.14870000  1.0 0.1036817667
H  H6  1  0.01080000  0.90870000  0.85130000  1.0 0.1036817667
H  H7  1  0.51080000  0.09130000  0.64870000  1.0 0.1036817667
H  H8  1  0.48920000  0.09130000  0.35130000  1.0 0.1036817667
H  H9  1  0.09300000  0.63090000  0.13680000  1.0 0.140670809
H  H10  1  0.90700000  0.63090000  0.86320000  1.0 0.140670809
H  H11  1  0.40700000  0.36910000  0.63680000  1.0 0.140670809
H  H12  1  0.59300000  0.36910000  0.36320000  1.0 0.140670809
H  H13  1  0.28670000  0.74420000  0.14350000  1.0 0.1492471803
H  H14  1  0.71330000  0.74420000  0.85650000  1.0 0.140670809
H  H15  1  0.21330000  0.25580000  0.64350000  1.0 0.140670809
H  H16  1  0.78670000  0.25580000  0.35650000  1.0 0.1492471803
H  H17  1  0.41620000  0.67780000  0.31820000  1.0 0.140670809
H  H18  1  0.58380000  0.67780000  0.68180000  1.0 0.140670809
H  H19  1  0.08380000  0.32220000  0.81820000  1.0 0.140670809
H  H20  1  0.91620000  0.32220000  0.18180000  1.0 0.140670809
H  H21  1  0.96290000  0.86570000  0.39440000  1.0 0.124705693
H  H22  1  0.03710000  0.86570000  0.60560000  1.0 0.124705693
H  H23  1  0.53710000  0.13430000  0.89440000  1.0 0.124705693
H  H24  1  0.46290000  0.13430000  0.10560000  1.0 0.124705693
H  H25  1  0.15610000  0.87810000  0.46840000  1.0 0.1312197207
H  H26  1  0.84390000  0.87810000  0.53160000  1.0 0.1312197207
H  H27  1  0.34390000  0.12190000  0.96840000  1.0 0.1312197207
H  H28  1  0.65610000  0.12190000  0.03160000  1.0 0.1312197207
C  C1  1  0.48530000  0.72340000  0.39110000  1.0 -0.1894766686
C  C2  1  0.51470000  0.72340000  0.60890000  1.0 -0.1894766686
C  C3  1  0.01470000  0.27660000  0.89110000  1.0 -0.1894766686
C  C4  1  0.98530000  0.27660000  0.10890000  1.0 -0.1894766686
C  C5  1  0.04300000  0.84900000  0.17890000  1.0 0.0697703569
C  C6  1  0.95700000  0.84900000  0.82110000  1.0 0.0697703569
C  C7  1  0.45700000  0.15100000  0.67890000  1.0 0.0697703569
C  C8  1  0.54300000  0.15100000  0.32110000  1.0 0.0697703569
C  C9  1  0.17050000  0.69760000  0.16140000  1.0 -0.3826536031
C  C10  1  0.82950000  0.69760000  0.83860000  1.0 -0.3826536031
C  C11  1  0.32950000  0.30240000  0.66140000  1.0 -0.3826536031
C  C12  1  0.67050000  0.30240000  0.33860000  1.0 -0.3826536031
C  C13  1  0.16990000  0.97820000  0.20950000  1.0 0.5740017204
C  C14  1  0.83010000  0.97820000  0.79050000  1.0 0.5740017204
C  C15  1  0.33010000  0.02180000  0.70950000  1.0 0.5740017204
C  C16  1  0.66990000  0.02180000  0.29050000  1.0 0.5740017204
C  C17  1  0.24600000  0.57260000  0.20220000  1.0 0.6586951522
C  C18  1  0.75400000  0.57260000  0.79780000  1.0 0.6586951522
C  C19  1  0.25400000  0.42740000  0.70220000  1.0 0.6586951522
C  C20  1  0.74600000  0.42740000  0.29780000  1.0 0.6586951522
C  C21  1  0.36230000  0.71740000  0.34890000  1.0 0.1121214388
C  C22  1  0.63770000  0.71740000  0.65110000  1.0 0.1121214388
C  C23  1  0.13770000  0.28260000  0.84890000  1.0 0.1121214388
C  C24  1  0.86230000  0.28260000  0.15110000  1.0 0.1121214388
C  C25  1  0.40900000  0.78000000  0.43580000  1.0 0.1860124453
C  C26  1  0.59100000  0.78000000  0.56420000  1.0 0.1860124453
C  C27  1  0.09100000  0.22000000  0.93580000  1.0 0.1860124453
C  C28  1  0.90900000  0.22000000  0.06420000  1.0 0.1860124453
C  C29  1  0.09570000  0.82720000  0.39350000  1.0 0.1036817667
C  C30  1  0.90430000  0.82720000  0.60650000  1.0 0.1036817667
C  C31  1  0.40430000  0.17280000  0.89350000  1.0 0.1036817667
C  C32  1  0.59570000  0.17280000  0.10650000  1.0 0.1036817667
C  C33  1  0.21080000  0.83600000  0.43810000  1.0 -0.2032099904
C  C34  1  0.78920000  0.83600000  0.56190000  1.0 -0.2032099904
C  C35  1  0.28920000  0.16400000  0.93810000  1.0 -0.2032099904
C  C36  1  0.71080000  0.16400000  0.06190000  1.0 -0.2032099904
N  N1  1  0.16980000  0.76550000  0.34983000  1.0 -0.1894766686
N  N2  1  0.83020000  0.76550000  0.65017000  1.0 -0.1894766686
N  N3  1  0.33020000  0.23450000  0.84983000  1.0 -0.1894766686
N  N4  1  0.66980000  0.23450000  0.15017000  1.0 -0.1894766686
N  N5  1  0.54370000  0.78120000  0.47900000  1.0 -0.1046060862
N  N6  1  0.45630000  0.78120000  0.52100000  1.0 -0.1046060862
N  N7  1  0.95630000  0.21880000  0.97900000  1.0 -0.1046060862
N  N8  1  0.04370000  0.21880000  0.02100000  1.0 -0.1046060862
O  O1  1  0.28310000  0.07800000  0.18583000  1.0 -0.5286476405
O  O2  1  0.71690000  0.07800000  0.81417000  1.0 -0.5286476405
O  O3  1  0.21690000  0.92200000  0.68583000  1.0 -0.5286476405
O  O4  1  0.78310000  0.92200000  0.31417000  1.0 -0.5286476405
O  O5  1  0.20660000  0.59530000  0.24867000  1.0 -0.5286476405
O  O6  1  0.79340000  0.59530000  0.75133000  1.0 -0.5286476405
O  O7  1  0.29340000  0.40470000  0.74867000  1.0 -0.5286476405
O  O8  1  0.70660000  0.40470000  0.25133000  1.0 -0.5286476405
O  O9  1  0.34600000  0.44570000  0.18504000  1.0 -0.5469823868
O  O10  1  0.65400000  0.44570000  0.81496000  1.0 -0.5469823868
O  O11  1  0.15400000  0.55430000  0.68504000  1.0 -0.5469823868
O  O12  1  0.84600000  0.55430000  0.31496000  1.0 -0.5469823868
O  O13  1  0.15000000  0.97230000  0.25776000  1.0 -0.4653816016
O  O14  1  0.85000000  0.97230000  0.74224000  1.0 -0.4653816016
O  O15  1  0.35000000  0.02770000  0.75776000  1.0 -0.4644448699
O  O16  1  0.65000000  0.02770000  0.24224000  1.0 -0.4644448699
O  O17  1  0.87940000  0.78160000  0.20781000  1.0 -0.4138955863
O  O18  1  0.12060000  0.78160000  0.79219000  1.0 -0.4138955863
O  O19  1  0.62060000  0.21840000  0.70781000  1.0 -0.4138955863
O  O20  1  0.37940000  0.21840000  0.29219000  1.0 -0.4138955863
