# DDEC6 charges by PACMAN v1.1 (https://github.com/mtap-research/PACMAN-charge/)
data_2012[Ni][ins]3[ASR]1
_chemical_formula_sum              "Ni4 H32 C40 N4 O20"
_cell_length_a       6.6856
_cell_length_b       7.6377
_cell_length_c       26.9967
_cell_angle_alpha    90
_cell_angle_beta     90
_cell_angle_gamma    90

_symmetry_space_group_name_H-M    "P 1"
_symmetry_Int_Tables_number       1

loop_
  _symmetry_equiv_pos_as_xyz
  'x, y, z'

loop_
  _atom_site_type_symbol
  _atom_site_label
  _atom_site_symmetry_multiplicity
  _atom_site_fract_x
  _atom_site_fract_y
  _atom_site_fract_z
  _atom_site_occupancy
  _atom_site_charge
Ni  Ni1       1.0  0.50035  0.74604  0.71758  1.0000 0.9140157293
Ni  Ni2       1.0  0.49965  0.74604  0.28242  1.0000 0.9140157293
Ni  Ni3       1.0  0.99965  0.25396  0.21758  1.0000 0.9140157293
Ni  Ni4       1.0  0.00035  0.25396  0.78242  1.0000 0.9140157293
H   H1        1.0  0.64610  0.61900  0.53870  1.0000 0.1294004185
H   H2        1.0  0.35390  0.61900  0.46130  1.0000 0.1294004185
H   H3        1.0  0.85390  0.38100  0.03870  1.0000 0.1294004185
H   H4        1.0  0.14610  0.38100  0.96130  1.0000 0.1294004185
H   H5        1.0  0.49240  0.59510  0.84860  1.0000 0.0976982678
H   H6        1.0  0.50760  0.59510  0.15140  1.0000 0.0976982678
H   H7        1.0  0.00760  0.40490  0.34860  1.0000 0.0976982678
H   H8        1.0  0.99240  0.40490  0.65140  1.0000 0.0976982678
H   H9        1.0  0.11160  0.80370  0.61350  1.0000 0.147477765
H   H10       1.0  0.88840  0.80370  0.38650  1.0000 0.147477765
H   H11       1.0  0.38840  0.19630  0.11350  1.0000 0.147477765
H   H12       1.0  0.61160  0.19630  0.88650  1.0000 0.147477765
H   H13       1.0  0.46770  0.62610  0.60980  1.0000 0.1215781833
H   H14       1.0  0.53230  0.62610  0.39020  1.0000 0.1215781833
H   H15       1.0  0.03230  0.37390  0.10980  1.0000 0.1215781833
H   H16       1.0  0.96770  0.37390  0.89020  1.0000 0.1215781833
H   H17       1.0  0.91730  0.82520  0.68210  1.0000 0.1383436884
H   H18       1.0  0.08270  0.82520  0.31790  1.0000 0.1383436884
H   H19       1.0  0.58270  0.17480  0.18210  1.0000 0.1383436884
H   H20       1.0  0.41730  0.17480  0.81790  1.0000 0.1383436884
H   H21       1.0  0.16950  0.71190  0.52830  1.0000 0.1294004185
H   H22       1.0  0.83050  0.71190  0.47170  1.0000 0.1294004185
H   H23       1.0  0.33050  0.28810  0.02830  1.0000 0.1294004185
H   H24       1.0  0.66950  0.28810  0.97170  1.0000 0.1294004185
H   H25       1.0  0.59580  0.87110  0.85890  1.0000 0.1294004185
H   H26       1.0  0.40420  0.87110  0.14110  1.0000 0.1294004185
H   H27       1.0  0.90420  0.12890  0.35890  1.0000 0.1294004185
H   H28       1.0  0.09580  0.12890  0.64110  1.0000 0.1294004185
H   H29       1.0  0.78680  0.75580  0.85240  1.0000 0.1383436884
H   H30       1.0  0.21320  0.75580  0.14760  1.0000 0.1383436884
H   H31       1.0  0.71320  0.24420  0.35240  1.0000 0.1383436884
H   H32       1.0  0.28680  0.24420  0.64760  1.0000 0.1383436884
C   C1        1.0  0.90430  0.71480  0.56780  1.0000 0.147477765
C   C2        1.0  0.09570  0.71480  0.43220  1.0000 0.147477765
C   C3        1.0  0.59570  0.28520  0.06780  1.0000 0.147477765
C   C4        1.0  0.40430  0.28520  0.93220  1.0000 0.147477765
C   C5        1.0  0.70490  0.66000  0.56770  1.0000 -0.2016223032
C   C6        1.0  0.29510  0.66000  0.43230  1.0000 -0.2016223032
C   C7        1.0  0.79510  0.34000  0.06770  1.0000 -0.2016223032
C   C8        1.0  0.20490  0.34000  0.93230  1.0000 -0.2016223032
C   C9        1.0  0.54530  0.65410  0.81910  1.0000 0.070877381
C   C10       1.0  0.45470  0.65410  0.18090  1.0000 0.070877381
C   C11       1.0  0.95470  0.34590  0.31910  1.0000 0.070877381
C   C12       1.0  0.04530  0.34590  0.68090  1.0000 0.070877381
C   C13       1.0  0.97780  0.77120  0.61150  1.0000 -0.1826171127
C   C14       1.0  0.02220  0.77120  0.38850  1.0000 -0.1826171127
C   C15       1.0  0.52220  0.22880  0.11150  1.0000 -0.1826171127
C   C16       1.0  0.47780  0.22880  0.88850  1.0000 -0.1826171127
C   C17       1.0  0.59830  0.66790  0.61020  1.0000 0.070877381
C   C18       1.0  0.40170  0.66790  0.38980  1.0000 0.070877381
C   C19       1.0  0.90170  0.33210  0.11020  1.0000 0.070877381
C   C20       1.0  0.09830  0.33210  0.88980  1.0000 0.070877381
C   C21       1.0  0.86080  0.78190  0.65310  1.0000 0.1294004185
C   C22       1.0  0.13920  0.78190  0.34690  1.0000 0.1294004185
C   C23       1.0  0.63920  0.21810  0.15310  1.0000 0.1294004185
C   C24       1.0  0.36080  0.21810  0.84690  1.0000 0.1294004185
C   C25       1.0  0.74740  0.92670  0.79610  1.0000 0.6553086678
C   C26       1.0  0.25260  0.92670  0.20390  1.0000 0.6553086678
C   C27       1.0  0.75260  0.07330  0.29610  1.0000 0.6553086678
C   C28       1.0  0.24740  0.07330  0.70390  1.0000 0.6553086678
C   C29       1.0  0.03190  0.71310  0.52330  1.0000 -0.130835842
C   C30       1.0  0.96810  0.71310  0.47670  1.0000 -0.130835842
C   C31       1.0  0.46810  0.28690  0.02330  1.0000 -0.130835842
C   C32       1.0  0.53190  0.28690  0.97670  1.0000 -0.130835842
C   C33       1.0  0.67170  0.80320  0.83510  1.0000 -0.3814700802
C   C34       1.0  0.32830  0.80320  0.16490  1.0000 -0.3814700802
C   C35       1.0  0.82830  0.19680  0.33510  1.0000 -0.3814700802
C   C36       1.0  0.17170  0.19680  0.66490  1.0000 -0.3814700802
C   C37       1.0  0.67320  0.52080  0.78880  1.0000 0.5695232193
C   C38       1.0  0.32680  0.52080  0.21120  1.0000 0.5695232193
C   C39       1.0  0.82680  0.47920  0.28880  1.0000 0.5695232193
C   C40       1.0  0.17320  0.47920  0.71120  1.0000 0.5695232193
N   N1        1.0  0.67050  0.73310  0.65360  1.0000 -0.1826171127
N   N2        1.0  0.32950  0.73310  0.34640  1.0000 -0.1826171127
N   N3        1.0  0.82950  0.26690  0.15360  1.0000 -0.1826171127
N   N4        1.0  0.17050  0.26690  0.84640  1.0000 -0.1826171127
O   O1        1.0  0.38240  0.71930  0.79060  1.0000 -0.4325796251
O   O2        1.0  0.61760  0.71930  0.20940  1.0000 -0.4325796251
O   O3        1.0  0.11760  0.28070  0.29060  1.0000 -0.4325796251
O   O4        1.0  0.88240  0.28070  0.70940  1.0000 -0.4325796251
O   O5        1.0  0.70890  0.90430  0.75130  1.0000 -0.5200870294
O   O6        1.0  0.29110  0.90430  0.24870  1.0000 -0.5200870294
O   O7        1.0  0.79110  0.09570  0.25130  1.0000 -0.5200870294
O   O8        1.0  0.20890  0.09570  0.74870  1.0000 -0.5200870294
O   O9        1.0  0.78420  0.42000  0.81200  1.0000 -0.5323985179
O   O10       1.0  0.21580  0.42000  0.18800  1.0000 -0.5323985179
O   O11       1.0  0.71580  0.58000  0.31200  1.0000 -0.5323985179
O   O12       1.0  0.28420  0.58000  0.68800  1.0000 -0.5323985179
O   O13       1.0  0.65060  0.52590  0.74240  1.0000 -0.4754165967
O   O14       1.0  0.34940  0.52590  0.25760  1.0000 -0.4754165967
O   O15       1.0  0.84940  0.47410  0.24240  1.0000 -0.4754165967
O   O16       1.0  0.15060  0.47410  0.75760  1.0000 -0.474543478
O   O17       1.0  0.84920  0.05170  0.81280  1.0000 -0.5496974696
O   O18       1.0  0.15080  0.05170  0.18720  1.0000 -0.5496974696
O   O19       1.0  0.65080  0.94830  0.31280  1.0000 -0.5496974696
O   O20       1.0  0.34920  0.94830  0.68720  1.0000 -0.5496974696
