# DDEC6 charges by PACMAN v1.1 (https://github.com/mtap-research/PACMAN-charge/)
data_2013[Mn][lvt]3[ASR]1
_chemical_formula_sum              "Mn8 H40 C72 N56"
_cell_length_a       17.1454
_cell_length_b       17.1454
_cell_length_c       17.1454
_cell_angle_alpha    109.883
_cell_angle_beta     109.883
_cell_angle_gamma    108.651

_symmetry_space_group_name_H-M    "P 1"
_symmetry_Int_Tables_number       1

loop_
  _symmetry_equiv_pos_as_xyz
  'x, y, z'

loop_
  _atom_site_type_symbol
  _atom_site_label
  _atom_site_symmetry_multiplicity
  _atom_site_fract_x
  _atom_site_fract_y
  _atom_site_fract_z
  _atom_site_occupancy
  _atom_site_charge
Mn  Mn1       1.0  0.91718  0.75436  0.37290  1.0000 0.6297813301
Mn  Mn2       1.0  0.50436  0.63146  0.33718  1.0000 0.6297813301
Mn  Mn3       1.0  0.38146  0.54428  0.62710  1.0000 0.6297813301
Mn  Mn4       1.0  0.29428  0.16718  0.66282  1.0000 0.6297813301
Mn  Mn5       1.0  0.83282  0.49564  0.12710  1.0000 0.6297813301
Mn  Mn6       1.0  0.24564  0.61854  0.16282  1.0000 0.6297813301
Mn  Mn7       1.0  0.36854  0.70572  0.87290  1.0000 0.6297813301
Mn  Mn8       1.0  0.45572  0.08282  0.83718  1.0000 0.6297813301
H   H1        1.0  0.25130  0.86920  0.70510  1.0000 0.101455547
H   H2        1.0  0.61920  0.41410  0.11790  1.0000 0.101455547
H   H3        1.0  0.16410  0.54620  0.29490  1.0000 0.101455547
H   H4        1.0  0.29620  0.50130  0.88210  1.0000 0.101455547
H   H5        1.0  0.49870  0.38080  0.79490  1.0000 0.101455547
H   H6        1.0  0.13080  0.83590  0.38210  1.0000 0.101455547
H   H7        1.0  0.58590  0.70380  0.20510  1.0000 0.101455547
H   H8        1.0  0.45380  0.74870  0.61790  1.0000 0.101455547
H   H9        1.0  0.91950  0.03080  0.31590  1.0000 0.137691572
H   H10       1.0  0.78080  0.96490  0.61130  1.0000 0.137691572
H   H11       1.0  0.71490  0.60360  0.68410  1.0000 0.1285191605
H   H12       1.0  0.35360  0.16950  0.38870  1.0000 0.137691572
H   H13       1.0  0.83050  0.21920  0.18410  1.0000 0.1285191605
H   H14       1.0  0.96920  0.28510  0.88870  1.0000 0.1285191605
H   H15       1.0  0.03510  0.64640  0.81590  1.0000 0.137691572
H   H16       1.0  0.39640  0.08050  0.11130  1.0000 0.137691572
H   H17       1.0  0.78090  0.94760  0.16970  1.0000 0.1285191605
H   H18       1.0  0.69760  0.02790  0.66667  1.0000 0.1285191605
H   H19       1.0  0.77790  0.61120  0.83030  1.0000 0.1285191605
H   H20       1.0  0.36120  0.03090  0.33333  1.0000 0.1285191605
H   H21       1.0  0.96910  0.30240  0.33030  1.0000 0.1285191605
H   H22       1.0  0.05240  0.22210  0.83330  1.0000 0.1285191605
H   H23       1.0  0.97210  0.63880  0.66970  1.0000 0.1285191605
H   H24       1.0  0.38880  0.21910  0.16670  1.0000 0.1285191605
H   H25       1.0  0.69630  0.78280  0.09030  1.0000 0.137691572
H   H26       1.0  0.53280  0.94250  0.58650  1.0000 0.137691572
H   H27       1.0  0.69250  0.60600  0.90970  1.0000 0.137691572
H   H28       1.0  0.35600  0.94630  0.41350  1.0000 0.137691572
H   H29       1.0  0.05370  0.46720  0.40970  1.0000 0.137691572
H   H30       1.0  0.21720  0.30750  0.91350  1.0000 0.137691572
H   H31       1.0  0.05750  0.64400  0.59030  1.0000 0.137691572
H   H32       1.0  0.39400  0.30370  0.08650  1.0000 0.137691572
H   H33       1.0  0.74780  0.70620  0.16500  1.0000 0.101455547
H   H34       1.0  0.45620  0.79120  0.45840  1.0000 0.101455547
H   H35       1.0  0.54120  0.58280  0.83500  1.0000 0.101455547
H   H36       1.0  0.33280  0.99780  0.54160  1.0000 0.101455547
H   H37       1.0  0.00220  0.54380  0.33500  1.0000 0.101455547
H   H38       1.0  0.29380  0.45880  0.04160  1.0000 0.101455547
H   H39       1.0  0.20880  0.66720  0.66500  1.0000 0.101455547
H   H40       1.0  0.41720  0.25220  0.95840  1.0000 0.101455547
C   C1        1.0  0.23960  0.90900  0.68280  1.0000 0.1211859604
C   C2        1.0  0.65900  0.47620  0.16940  1.0000 0.1211859604
C   C3        1.0  0.22620  0.55680  0.31720  1.0000 0.1211859604
C   C4        1.0  0.30680  0.48960  0.83060  1.0000 0.1211859604
C   C5        1.0  0.51040  0.34100  0.81720  1.0000 0.1211859604
C   C6        1.0  0.09100  0.77380  0.33060  1.0000 0.1211859604
C   C7        1.0  0.52380  0.69320  0.18280  1.0000 0.1211859604
C   C8        1.0  0.44320  0.76040  0.66940  1.0000 0.1211859604
C   C9        1.0  0.17277  0.96022  0.60351  1.0000 0.2225995167
C   C10       1.0  0.71022  0.60671  0.28745  1.0000 0.2225995167
C   C11       1.0  0.35671  0.56926  0.39649  1.0000 0.2225995167
C   C12       1.0  0.31926  0.42277  0.71255  1.0000 0.2225995167
C   C13       1.0  0.57723  0.28978  0.89649  1.0000 0.2225995167
C   C14       1.0  0.03978  0.64329  0.21255  1.0000 0.2225995167
C   C15       1.0  0.39329  0.68074  0.10351  1.0000 0.2225995167
C   C16       1.0  0.43074  0.82723  0.78745  1.0000 0.2225995167
C   C17       1.0  0.10964  0.97388  0.53428  1.0000 0.2392183786
C   C18       1.0  0.72388  0.68960  0.36424  1.0000 0.2392183786
C   C19       1.0  0.43960  0.57536  0.46572  1.0000 0.2392183786
C   C20       1.0  0.32536  0.35964  0.63576  1.0000 0.2392183786
C   C21       1.0  0.64036  0.27612  0.96572  1.0000 0.2392183786
C   C22       1.0  0.02612  0.56040  0.13576  1.0000 0.2392183786
C   C23       1.0  0.31040  0.67464  0.03428  1.0000 0.2392183786
C   C24       1.0  0.42464  0.89036  0.86424  1.0000 0.2392183786
C   C25       1.0  0.00186  0.95990  0.41636  1.0000 0.2225995167
C   C26       1.0  0.70990  0.79354  0.45804  1.0000 0.2225995167
C   C27       1.0  0.54354  0.58550  0.58364  1.0000 0.2225995167
C   C28       1.0  0.33550  0.25186  0.54196  1.0000 0.2225995167
C   C29       1.0  0.74814  0.29010  0.08364  1.0000 0.2225995167
C   C30       1.0  0.04010  0.45646  0.04196  1.0000 0.2225995167
C   C31       1.0  0.20646  0.66450  0.91636  1.0000 0.2225995167
C   C32       1.0  0.41450  0.99814  0.95804  1.0000 0.2225995167
C   C33       1.0  0.91380  0.91400  0.32480  1.0000 0.165323483
C   C34       1.0  0.66400  0.83920  0.50020  1.0000 0.1638701429
C   C35       1.0  0.58920  0.58900  0.67520  1.0000 0.1638701429
C   C36       1.0  0.33900  0.16380  0.49980  1.0000 0.1638701429
C   C37       1.0  0.83620  0.33600  0.17520  1.0000 0.1638701429
C   C38       1.0  0.08600  0.41080  0.99980  1.0000 0.165323483
C   C39       1.0  0.16080  0.66100  0.82480  1.0000 0.1638701429
C   C40       1.0  0.41100  0.08620  0.00020  1.0000 0.1638701429
C   C41       1.0  0.88420  0.96460  0.28440  1.0000 -0.1600732327
C   C42       1.0  0.71460  0.93020  0.58040  1.0000 -0.1600732327
C   C43       1.0  0.68020  0.59980  0.71560  1.0000 -0.1600732327
C   C44       1.0  0.34980  0.13420  0.41960  1.0000 -0.1600732327
C   C45       1.0  0.86580  0.28540  0.21560  1.0000 -0.1600732327
C   C46       1.0  0.03540  0.31980  0.91960  1.0000 -0.1600732327
C   C47       1.0  0.06980  0.65020  0.78440  1.0000 -0.1600732327
C   C48       1.0  0.40020  0.11580  0.08040  1.0000 -0.1600732327
C   C49       1.0  0.80220  0.91500  0.19740  1.0000 -0.0602987598
C   C50       1.0  0.66500  0.96760  0.61280  1.0000 -0.0602987598
C   C51       1.0  0.71760  0.60480  0.80260  1.0000 -0.0602987598
C   C52       1.0  0.35480  0.05220  0.38720  1.0000 -0.0602987598
C   C53       1.0  0.94780  0.33500  0.30260  1.0000 -0.0602987598
C   C54       1.0  0.08500  0.28240  0.88720  1.0000 -0.0602987598
C   C55       1.0  0.03240  0.64520  0.69740  1.0000 -0.0602987598
C   C56       1.0  0.39520  0.19780  0.11280  1.0000 -0.0602987598
C   C57       1.0  0.75080  0.81720  0.15040  1.0000 -0.1600732327
C   C58       1.0  0.56720  0.91680  0.56640  1.0000 -0.1600732327
C   C59       1.0  0.66680  0.60040  0.84960  1.0000 -0.1600732327
C   C60       1.0  0.35040  0.00080  0.43360  1.0000 -0.1600732327
C   C61       1.0  0.99920  0.43280  0.34960  1.0000 -0.1600732327
C   C62       1.0  0.18280  0.33320  0.93360  1.0000 -0.1600732327
C   C63       1.0  0.08320  0.64960  0.65040  1.0000 -0.1600732327
C   C64       1.0  0.39960  0.24920  0.06640  1.0000 -0.1600732327
C   C65       1.0  0.78300  0.77230  0.19550  1.0000 0.0302045286
C   C66       1.0  0.52230  0.82680  0.48930  1.0000 0.0302045286
C   C67       1.0  0.57680  0.58750  0.80450  1.0000 0.0302045286
C   C68       1.0  0.33750  0.03300  0.51070  1.0000 0.0302045286
C   C69       1.0  0.96700  0.47770  0.30450  1.0000 0.0302045286
C   C70       1.0  0.22770  0.42320  0.01070  1.0000 0.0302045286
C   C71       1.0  0.17320  0.66250  0.69550  1.0000 0.0302045286
C   C72       1.0  0.41250  0.21700  0.98930  1.0000 0.0302045286
N   N1        1.0  0.15568  0.88029  0.60839  1.0000 -0.3868844862
N   N2        1.0  0.63029  0.52190  0.22461  1.0000 -0.3868844862
N   N3        1.0  0.27190  0.54729  0.39161  1.0000 -0.3868844862
N   N4        1.0  0.29729  0.40568  0.77539  1.0000 -0.3868844862
N   N5        1.0  0.59432  0.36971  0.89161  1.0000 -0.3868844862
N   N6        1.0  0.11971  0.72810  0.27539  1.0000 -0.3868844862
N   N7        1.0  0.47810  0.70271  0.10839  1.0000 -0.3868844862
N   N8        1.0  0.45271  0.84432  0.72461  1.0000 -0.3868844862
N   N9        1.0  0.26045  0.03262  0.66943  1.0000 -0.2234329357
N   N10       1.0  0.78262  0.61319  0.27217  1.0000 -0.2234329357
N   N11       1.0  0.36319  0.59102  0.33057  1.0000 -0.2234329357
N   N12       1.0  0.34102  0.51045  0.72783  1.0000 -0.2234329357
N   N13       1.0  0.48955  0.21738  0.83057  1.0000 -0.2234329357
N   N14       1.0  0.96738  0.63681  0.22783  1.0000 -0.2234329357
N   N15       1.0  0.38681  0.65898  0.16943  1.0000 -0.2234329357
N   N16       1.0  0.40898  0.73955  0.77217  1.0000 -0.2234329357
N   N17       1.0  0.30425  0.99909  0.72162  1.0000 -0.1945867481
N   N18       1.0  0.74909  0.52747  0.19484  1.0000 -0.1945867481
N   N19       1.0  0.27747  0.58263  0.27838  1.0000 -0.1945867481
N   N20       1.0  0.33263  0.55425  0.80516  1.0000 -0.1945867481
N   N21       1.0  0.44575  0.25091  0.77838  1.0000 -0.1945867481
N   N22       1.0  0.00091  0.72253  0.30516  1.0000 -0.1945867481
N   N23       1.0  0.47253  0.66737  0.22162  1.0000 -0.1945867481
N   N24       1.0  0.41737  0.69575  0.69484  1.0000 -0.1945867481
N   N25       1.0  0.02314  0.90782  0.45664  1.0000 -0.3676735553
N   N26       1.0  0.65782  0.70118  0.38468  1.0000 -0.3676735553
N   N27       1.0  0.45118  0.56650  0.54336  1.0000 -0.3676735553
N   N28       1.0  0.31650  0.27314  0.61532  1.0000 -0.3676735553
N   N29       1.0  0.72686  0.34218  0.04336  1.0000 -0.3676735553
N   N30       1.0  0.09218  0.54882  0.11532  1.0000 -0.3676735553
N   N31       1.0  0.29882  0.68350  0.95664  1.0000 -0.3676735553
N   N32       1.0  0.43350  0.97686  0.88468  1.0000 -0.3676735553
N   N33       1.0  0.06857  0.05060  0.46519  1.0000 -0.2572804669
N   N34       1.0  0.80060  0.83541  0.48203  1.0000 -0.2572804669
N   N35       1.0  0.58541  0.60338  0.53481  1.0000 -0.2572804669
N   N36       1.0  0.35338  0.31857  0.51797  1.0000 -0.2572804669
N   N37       1.0  0.68143  0.19940  0.03481  1.0000 -0.2572804669
N   N38       1.0  0.94940  0.41459  0.01797  1.0000 -0.2572804669
N   N39       1.0  0.16459  0.64662  0.96519  1.0000 -0.2572804669
N   N40       1.0  0.39662  0.93143  0.98203  1.0000 -0.2572804669
N   N41       1.0  0.13891  0.05961  0.54286  1.0000 -0.211446518
N   N42       1.0  0.80961  0.76675  0.42070  1.0000 -0.211446518
N   N43       1.0  0.51675  0.59605  0.45714  1.0000 -0.211446518
N   N44       1.0  0.34605  0.38891  0.57930  1.0000 -0.211446518
N   N45       1.0  0.61109  0.19039  0.95714  1.0000 -0.211446518
N   N46       1.0  0.94039  0.48325  0.07930  1.0000 -0.211446518
N   N47       1.0  0.23325  0.65395  0.04286  1.0000 -0.211446518
N   N48       1.0  0.40395  0.86109  0.92070  1.0000 -0.211446518
N   N49       1.0  0.86278  0.81889  0.28159  1.0000 -0.211446518
N   N50       1.0  0.56889  0.78730  0.45611  1.0000 -0.211446518
N   N51       1.0  0.53730  0.58119  0.71841  1.0000 -0.211446518
N   N52       1.0  0.33119  0.11278  0.54389  1.0000 -0.211446518
N   N53       1.0  0.88722  0.43111  0.21841  1.0000 -0.211446518
N   N54       1.0  0.18111  0.46270  0.04389  1.0000 -0.211446518
N   N55       1.0  0.21270  0.66881  0.78159  1.0000 -0.211446518
N   N56       1.0  0.41881  0.13722  0.95611  1.0000 -0.211446518
