# DDEC6 charges by PACMAN v1.1 (https://github.com/mtap-research/PACMAN-charge/)
data_EBATUY_ASR_pacman
_symmetry_space_group_name_H-M   'P 1'
_cell_length_a   11.34100000
_cell_length_b   12.23000000
_cell_length_c   15.25100000
_cell_angle_alpha   93.34000000
_cell_angle_beta   107.37100000
_cell_angle_gamma   117.03100000
_symmetry_Int_Tables_number   1
_chemical_formula_structural   Cd3H26C40S6(N4O)4
_chemical_formula_sum   'Cd3 H26 C40 S6 N16 O4'
_cell_volume   1750.88370361
_cell_formula_units_Z   1
loop_
 _symmetry_equiv_pos_site_id
 _symmetry_equiv_pos_as_xyz
  1  'x, y, z'
loop_
 _atom_site_type_symbol
 _atom_site_label
 _atom_site_symmetry_multiplicity
 _atom_site_fract_x
 _atom_site_fract_y
 _atom_site_fract_z
 _atom_site_occupancy
 _atom_site_charge
Cd  Cd1  1  0.76768000  0.70273000  0.62807000  1.0 0.728745809
Cd  Cd2  1  0.23232000  0.29727000  0.37193000  1.0 0.728745809
Cd  Cd3  1  0.00000000  0.00000000  0.00000000  1.0 0.7234086303
H  H1  1  0.32890000  0.38860000  0.87600000  1.0 0.2835391668
H  H2  1  0.67110000  0.61140000  0.12400000  1.0 0.2835391668
H  H3  1  0.47760000  0.70190000  0.62020000  1.0 0.1016496477
H  H4  1  0.52240000  0.29810000  0.37980000  1.0 0.1016496477
H  H5  1  0.25690000  0.64860000  0.54790000  1.0 0.2696202504
H  H6  1  0.74310000  0.35140000  0.45210000  1.0 0.2696202504
H  H7  1  0.67650000  0.56090000  0.78660000  1.0 0.1181534118
H  H8  1  0.32350000  0.43910000  0.21340000  1.0 0.1181534118
H  H9  1  0.82610000  0.75770000  0.43480000  1.0 0.1181534118
H  H10  1  0.17390000  0.24230000  0.56520000  1.0 0.1181534118
H  H11  1  0.03070000  0.66960000  0.64820000  1.0 0.1313690973
H  H12  1  0.96930000  0.33040000  0.35180000  1.0 0.1313690973
H  H13  1  0.18460000  0.23310000  0.92870000  1.0 0.1181534118
H  H14  1  0.81540000  0.76690000  0.07130000  1.0 0.1181534118
H  H15  1  0.30130000  0.49550000  0.78610000  1.0 0.1125829352
H  H16  1  0.69870000  0.50450000  0.21390000  1.0 0.1181534118
H  H17  1  0.96200000  0.74930000  0.35370000  1.0 0.1313690973
H  H18  1  0.03800000  0.25070000  0.64630000  1.0 0.1313690973
H  H19  1  0.59510000  0.33120000  0.01350000  1.0 0.1415659098
H  H20  1  0.40490000  0.66880000  0.98650000  1.0 0.1415659098
H  H21  1  0.13360000  0.69360000  0.41890000  1.0 0.1415659098
H  H22  1  0.86640000  0.30640000  0.58110000  1.0 0.1415659098
H  H23  1  0.33090000  0.07150000  0.10760000  1.0 0.1125829352
H  H24  1  0.66910000  0.92850000  0.89240000  1.0 0.1125829352
H  H25  1  0.55210000  0.18530000  0.10400000  1.0 0.1415659098
H  H26  1  0.44790000  0.81470000  0.89600000  1.0 0.1415659098
C  C1  1  0.48130000  0.65450000  0.66550000  1.0 0.0498980043
C  C2  1  0.51870000  0.34550000  0.33450000  1.0 0.0498980043
C  C3  1  0.53020000  0.38530000  0.55210000  1.0 0.2611284164
C  C4  1  0.46980000  0.61470000  0.44790000  1.0 0.2611284164
C  C5  1  0.36930000  0.60200000  0.69760000  1.0 -0.059176294
C  C6  1  0.63070000  0.39800000  0.30240000  1.0 -0.059176294
C  C7  1  0.97990000  0.76670000  0.85180000  1.0 0.2696202504
C  C8  1  0.02010000  0.23330000  0.14820000  1.0 0.2696202504
C  C9  1  0.24340000  0.62160000  0.66690000  1.0 0.4616993127
C  C10  1  0.75660000  0.37840000  0.33310000  1.0 0.4616993127
C  C11  1  0.39370000  0.29790000  0.96020000  1.0 0.1772174148
C  C12  1  0.60630000  0.70210000  0.03980000  1.0 0.1772174148
C  C13  1  0.87800000  0.97460000  0.76390000  1.0 0.2696202504
C  C14  1  0.12200000  0.02540000  0.23610000  1.0 0.2696202504
C  C15  1  0.59740000  0.57120000  0.76350000  1.0 0.0854945911
C  C16  1  0.40260000  0.42880000  0.23650000  1.0 0.0854945911
C  C17  1  0.89690000  0.73810000  0.46240000  1.0 0.0279590247
C  C18  1  0.10310000  0.26190000  0.53760000  1.0 0.0279590247
C  C19  1  0.51260000  0.44450000  0.87190000  1.0 0.4668154625
C  C20  1  0.48740000  0.55550000  0.12810000  1.0 0.4668154625
C  C21  1  0.10220000  0.67730000  0.54240000  1.0 0.1895903705
C  C22  1  0.89780000  0.32270000  0.45760000  1.0 0.1895903705
C  C23  1  0.01750000  0.68580000  0.58820000  1.0 -0.0145662137
C  C24  1  0.98250000  0.31420000  0.41180000  1.0 -0.0145662137
C  C25  1  0.49140000  0.51590000  0.79870000  1.0 -0.059176294
C  C26  1  0.50860000  0.48410000  0.20130000  1.0 -0.059176294
C  C27  1  0.26010000  0.22340000  0.96430000  1.0 -0.0198570079
C  C28  1  0.73990000  0.77660000  0.03570000  1.0 -0.0198570079
C  C29  1  0.37570000  0.53200000  0.76430000  1.0 -0.1038504334
C  C30  1  0.62430000  0.46800000  0.23570000  1.0 -0.1038504334
C  C31  1  0.97670000  0.73190000  0.41330000  1.0 -0.1139508689
C  C32  1  0.02330000  0.26810000  0.58670000  1.0 -0.1139508689
C  C33  1  0.50420000  0.28290000  0.01410000  1.0 -0.1271284128
C  C34  1  0.49580000  0.71710000  0.98590000  1.0 -0.1271284128
C  C35  1  0.07980000  0.69990000  0.45240000  1.0 -0.1364711018
C  C36  1  0.92020000  0.30010000  0.54760000  1.0 -0.1364711018
C  C37  1  0.34580000  0.12850000  0.06880000  1.0 0.0550831465
C  C38  1  0.65420000  0.87150000  0.93120000  1.0 0.0550831465
C  C39  1  0.47880000  0.19720000  0.06780000  1.0 -0.1186457517
C  C40  1  0.52120000  0.80280000  0.93220000  1.0 -0.1186457517
S  S1  1  0.70199000  0.44635000  0.60510000  1.0 -0.3638744446
S  S2  1  0.29801000  0.55365000  0.39490000  1.0 -0.3638744446
S  S3  1  0.81790000  0.93940000  0.64803000  1.0 -0.333624983
S  S4  1  0.18210000  0.06060000  0.35197000  1.0 -0.333624983
S  S5  1  0.04600000  0.80310000  0.96747000  1.0 -0.3385699185
S  S6  1  0.95400000  0.19690000  0.03253000  1.0 -0.3385699185
N  N1  1  0.91740000  0.71640000  0.54990000  1.0 -0.1970614286
N  N2  1  0.08260000  0.28360000  0.45010000  1.0 -0.1970614286
N  N3  1  0.59420000  0.63840000  0.69830000  1.0 -0.2050286772
N  N4  1  0.40580000  0.36160000  0.30170000  1.0 -0.2050286772
N  N5  1  0.41040000  0.34360000  0.51580000  1.0 -0.4713316651
N  N6  1  0.58960000  0.65640000  0.48420000  1.0 -0.4713316651
N  N7  1  0.40190000  0.37920000  0.89890000  1.0 -0.346507916
N  N8  1  0.59810000  0.62080000  0.10110000  1.0 -0.346507916
N  N9  1  0.20800000  0.64900000  0.58140000  1.0 -0.3385699185
N  N10  1  0.79200000  0.35100000  0.41860000  1.0 -0.3385699185
N  N11  1  0.23670000  0.13900000  0.01710000  1.0 -0.1926512214
N  N12  1  0.76330000  0.86100000  0.98290000  1.0 -0.1926512214
N  N13  1  0.93300000  0.73800000  0.77080000  1.0 -0.454019198
N  N14  1  0.06700000  0.26200000  0.22920000  1.0 -0.454019198
N  N15  1  0.92320000  0.00410000  0.84540000  1.0 -0.4713316651
N  N16  1  0.07680000  0.99590000  0.15460000  1.0 -0.4713316651
O  O1  1  0.62720000  0.44940000  0.90700000  1.0 -0.4422953816
O  O2  1  0.37280000  0.55060000  0.09300000  1.0 -0.4422953816
O  O3  1  0.17940000  0.61280000  0.71760000  1.0 -0.4215439054
O  O4  1  0.82060000  0.38720000  0.28240000  1.0 -0.4215439054
