# DDEC6 charges by PACMAN v1.1 (https://github.com/mtap-research/PACMAN-charge/)
data_2011[Zn][nbo]3[ASR]1
_chemical_formula_sum              "Zn3 H72 C90 N6 O12"
_cell_length_a       21.746
_cell_length_b       21.746
_cell_length_c       7.7165
_cell_angle_alpha    90
_cell_angle_beta     90
_cell_angle_gamma    120

_symmetry_space_group_name_H-M    "P 1"
_symmetry_Int_Tables_number       1

loop_
  _symmetry_equiv_pos_as_xyz
  'x, y, z'

loop_
  _atom_site_type_symbol
  _atom_site_label
  _atom_site_symmetry_multiplicity
  _atom_site_fract_x
  _atom_site_fract_y
  _atom_site_fract_z
  _atom_site_occupancy
  _atom_site_charge
Zn  Zn1       1.0  0.50000  0.00000  0.00000  1.0000 0.794809775
Zn  Zn2       1.0  0.00000  0.50000  0.00000  1.0000 0.794809775
Zn  Zn3       1.0  0.50000  0.50000  0.00000  1.0000 0.794809775
H   H1        1.0  0.65480  0.03690  0.56230  1.0000 0.1487068425
H   H2        1.0  0.96310  0.61790  0.56230  1.0000 0.1487068425
H   H3        1.0  0.38210  0.34520  0.56230  1.0000 0.1487068425
H   H4        1.0  0.34520  0.96310  0.43770  1.0000 0.1487068425
H   H5        1.0  0.03690  0.38210  0.43770  1.0000 0.1487068425
H   H6        1.0  0.61790  0.65480  0.43770  1.0000 0.1487068425
H   H7        1.0  0.68020  0.99300  0.67950  1.0000 0.1487068425
H   H8        1.0  0.00700  0.68720  0.67950  1.0000 0.1487068425
H   H9        1.0  0.31280  0.31980  0.67950  1.0000 0.1487068425
H   H10       1.0  0.31980  0.00700  0.32050  1.0000 0.1487068425
H   H11       1.0  0.99300  0.31280  0.32050  1.0000 0.1487068425
H   H12       1.0  0.68720  0.68020  0.32050  1.0000 0.1487068425
H   H13       1.0  0.72640  0.07780  0.67310  1.0000 0.1487068425
H   H14       1.0  0.92220  0.64860  0.67310  1.0000 0.1487068425
H   H15       1.0  0.35140  0.27360  0.67310  1.0000 0.1487068425
H   H16       1.0  0.27360  0.92220  0.32690  1.0000 0.1487068425
H   H17       1.0  0.07780  0.35140  0.32690  1.0000 0.1487068425
H   H18       1.0  0.64860  0.72640  0.32690  1.0000 0.1487068425
H   H19       1.0  0.72250  0.12920  0.91420  1.0000 0.1371836528
H   H20       1.0  0.87080  0.59330  0.91420  1.0000 0.1371836528
H   H21       1.0  0.40670  0.27750  0.91420  1.0000 0.1371836528
H   H22       1.0  0.27750  0.87080  0.08580  1.0000 0.1371836528
H   H23       1.0  0.12920  0.40670  0.08580  1.0000 0.1371836528
H   H24       1.0  0.59330  0.72250  0.08580  1.0000 0.1371836528
H   H25       1.0  0.78870  0.20430  0.08010  1.0000 0.1185623241
H   H26       1.0  0.79570  0.58440  0.08010  1.0000 0.1185623241
H   H27       1.0  0.41560  0.21130  0.08010  1.0000 0.1185623241
H   H28       1.0  0.21130  0.79570  0.91990  1.0000 0.1185623241
H   H29       1.0  0.20430  0.41560  0.91990  1.0000 0.1185623241
H   H30       1.0  0.58440  0.78870  0.91990  1.0000 0.1185623241
H   H31       1.0  0.86030  0.28600  0.28410  1.0000 0.1185623241
H   H32       1.0  0.71400  0.57430  0.28410  1.0000 0.1185623241
H   H33       1.0  0.42570  0.13970  0.28410  1.0000 0.1185623241
H   H34       1.0  0.13970  0.71400  0.71590  1.0000 0.1185623241
H   H35       1.0  0.28600  0.42570  0.71590  1.0000 0.1185623241
H   H36       1.0  0.57430  0.86030  0.71590  1.0000 0.1185623241
H   H37       1.0  0.69130  0.23740  0.57910  1.0000 0.1185623241
H   H38       1.0  0.76260  0.45390  0.57910  1.0000 0.1185623241
H   H39       1.0  0.54610  0.30870  0.57910  1.0000 0.1185623241
H   H40       1.0  0.30870  0.76260  0.42090  1.0000 0.1185623241
H   H41       1.0  0.23740  0.54610  0.42090  1.0000 0.1185623241
H   H42       1.0  0.45390  0.69130  0.42090  1.0000 0.1185623241
H   H43       1.0  0.62000  0.15040  0.38140  1.0000 0.1185623241
H   H44       1.0  0.84960  0.46960  0.38140  1.0000 0.1185623241
H   H45       1.0  0.53040  0.38000  0.38140  1.0000 0.1185623241
H   H46       1.0  0.38000  0.84960  0.61860  1.0000 0.1185623241
H   H47       1.0  0.15040  0.53040  0.61860  1.0000 0.1185623241
H   H48       1.0  0.46960  0.62000  0.61860  1.0000 0.1185623241
H   H49       1.0  0.90820  0.38900  0.41650  1.0000 0.1371836528
H   H50       1.0  0.61100  0.51920  0.41650  1.0000 0.1371836528
H   H51       1.0  0.48080  0.09180  0.41650  1.0000 0.1371836528
H   H52       1.0  0.09180  0.61100  0.58350  1.0000 0.1371836528
H   H53       1.0  0.38900  0.48080  0.58350  1.0000 0.1371836528
H   H54       1.0  0.51920  0.90820  0.58350  1.0000 0.1371836528
H   H55       1.0  0.98230  0.46570  0.62110  1.0000 0.108453107
H   H56       1.0  0.53430  0.51660  0.62110  1.0000 0.108453107
H   H57       1.0  0.48340  0.01770  0.62110  1.0000 0.108453107
H   H58       1.0  0.01770  0.53430  0.37890  1.0000 0.108453107
H   H59       1.0  0.46570  0.48340  0.37890  1.0000 0.108453107
H   H60       1.0  0.51660  0.98230  0.37890  1.0000 0.108453107
H   H61       1.0  0.84770  0.36350  0.99050  1.0000 0.108453107
H   H62       1.0  0.63650  0.48420  0.99050  1.0000 0.108453107
H   H63       1.0  0.51580  0.15230  0.99050  1.0000 0.108453107
H   H64       1.0  0.15230  0.63650  0.00950  1.0000 0.108453107
H   H65       1.0  0.36350  0.51580  0.00950  1.0000 0.108453107
H   H66       1.0  0.48420  0.84770  0.00950  1.0000 0.108453107
H   H67       1.0  0.76810  0.28400  0.79590  1.0000 0.128968285
H   H68       1.0  0.71600  0.48410  0.79590  1.0000 0.128968285
H   H69       1.0  0.51590  0.23190  0.79590  1.0000 0.128968285
H   H70       1.0  0.23190  0.71600  0.20410  1.0000 0.128968285
H   H71       1.0  0.28400  0.51590  0.20410  1.0000 0.128968285
H   H72       1.0  0.48410  0.76810  0.20410  1.0000 0.128968285
C   C1        1.0  0.67812  0.03689  0.67100  1.0000 -0.5294041371
C   C2        1.0  0.96311  0.64123  0.67100  1.0000 -0.5294041371
C   C3        1.0  0.35877  0.32188  0.67100  1.0000 -0.5294041371
C   C4        1.0  0.32188  0.96311  0.32900  1.0000 -0.5294041371
C   C5        1.0  0.03689  0.35877  0.32900  1.0000 -0.5294041371
C   C6        1.0  0.64123  0.67812  0.32900  1.0000 -0.5294041371
C   C7        1.0  0.63636  0.04140  0.82236  1.0000 0.5012715921
C   C8        1.0  0.95860  0.59496  0.82236  1.0000 0.5012715921
C   C9        1.0  0.40504  0.36364  0.82236  1.0000 0.5012715921
C   C10       1.0  0.36364  0.95860  0.17764  1.0000 0.5012715921
C   C11       1.0  0.04140  0.40504  0.17764  1.0000 0.5012715921
C   C12       1.0  0.59496  0.63636  0.17764  1.0000 0.5012715921
C   C13       1.0  0.67383  0.09743  0.93939  1.0000 -0.4886661969
C   C14       1.0  0.90257  0.57640  0.93939  1.0000 -0.4886661969
C   C15       1.0  0.42360  0.32617  0.93939  1.0000 -0.4886661969
C   C16       1.0  0.32617  0.90257  0.06061  1.0000 -0.4886661969
C   C17       1.0  0.09743  0.42360  0.06061  1.0000 -0.4886661969
C   C18       1.0  0.57640  0.67383  0.06061  1.0000 -0.4886661969
C   C19       1.0  0.64662  0.11107  0.08924  1.0000 0.3582428211
C   C20       1.0  0.88893  0.53555  0.08924  1.0000 0.3582428211
C   C21       1.0  0.46445  0.35338  0.08924  1.0000 0.3582428211
C   C22       1.0  0.35338  0.88893  0.91076  1.0000 0.3582428211
C   C23       1.0  0.11107  0.46445  0.91076  1.0000 0.3582428211
C   C24       1.0  0.53555  0.64662  0.91076  1.0000 0.3582428211
C   C25       1.0  0.69618  0.16709  0.21254  1.0000 0.0118261991
C   C26       1.0  0.83291  0.52909  0.21254  1.0000 0.0118261991
C   C27       1.0  0.47091  0.30382  0.21254  1.0000 0.0118261991
C   C28       1.0  0.30382  0.83291  0.78746  1.0000 0.0118261991
C   C29       1.0  0.16709  0.47091  0.78746  1.0000 0.0118261991
C   C30       1.0  0.52909  0.69618  0.78746  1.0000 0.0118261991
C   C31       1.0  0.76829  0.20942  0.18421  1.0000 -0.1345126713
C   C32       1.0  0.79058  0.55887  0.18421  1.0000 -0.1345126713
C   C33       1.0  0.44113  0.23171  0.18421  1.0000 -0.1345126713
C   C34       1.0  0.23171  0.79058  0.81579  1.0000 -0.1345126713
C   C35       1.0  0.20942  0.44113  0.81579  1.0000 -0.1345126713
C   C36       1.0  0.55887  0.76829  0.81579  1.0000 -0.1345126713
C   C37       1.0  0.81062  0.25860  0.30488  1.0000 -0.1443629846
C   C38       1.0  0.74140  0.55202  0.30488  1.0000 -0.1443629846
C   C39       1.0  0.44798  0.18938  0.30488  1.0000 -0.1443629846
C   C40       1.0  0.18938  0.74140  0.69512  1.0000 -0.1443629846
C   C41       1.0  0.25860  0.44798  0.69512  1.0000 -0.1443629846
C   C42       1.0  0.55202  0.81062  0.69512  1.0000 -0.1443629846
C   C43       1.0  0.78396  0.26962  0.45357  1.0000 0.0655137725
C   C44       1.0  0.73038  0.51434  0.45357  1.0000 0.0655137725
C   C45       1.0  0.48566  0.21604  0.45357  1.0000 0.0655137725
C   C46       1.0  0.21604  0.73038  0.54643  1.0000 0.0655137725
C   C47       1.0  0.26962  0.48566  0.54643  1.0000 0.0655137725
C   C48       1.0  0.51434  0.78396  0.54643  1.0000 0.0655137725
C   C49       1.0  0.71202  0.22978  0.47900  1.0000 -0.1566617226
C   C50       1.0  0.77022  0.48224  0.47900  1.0000 -0.1566617226
C   C51       1.0  0.51776  0.28798  0.47900  1.0000 -0.1566617226
C   C52       1.0  0.28798  0.77022  0.52100  1.0000 -0.1566617226
C   C53       1.0  0.22978  0.51776  0.52100  1.0000 -0.1566617226
C   C54       1.0  0.48224  0.71202  0.52100  1.0000 -0.1566617226
C   C55       1.0  0.66951  0.17849  0.35950  1.0000 -0.1131322965
C   C56       1.0  0.82151  0.49102  0.35950  1.0000 -0.1131322965
C   C57       1.0  0.50898  0.33049  0.35950  1.0000 -0.1131322965
C   C58       1.0  0.33049  0.82151  0.64050  1.0000 -0.1131322965
C   C59       1.0  0.17849  0.50898  0.64050  1.0000 -0.1131322965
C   C60       1.0  0.49102  0.66951  0.64050  1.0000 -0.1131322965
C   C61       1.0  0.83180  0.32353  0.58158  1.0000 0.1185623241
C   C62       1.0  0.67647  0.50827  0.58158  1.0000 0.1185623241
C   C63       1.0  0.49173  0.16820  0.58158  1.0000 0.1185623241
C   C64       1.0  0.16820  0.67647  0.41842  1.0000 0.1185623241
C   C65       1.0  0.32353  0.49173  0.41842  1.0000 0.1185623241
C   C66       1.0  0.50827  0.83180  0.41842  1.0000 0.1185623241
C   C67       1.0  0.89465  0.38098  0.53502  1.0000 -0.1886572823
C   C68       1.0  0.61902  0.51367  0.53502  1.0000 -0.1886572823
C   C69       1.0  0.48633  0.10535  0.53502  1.0000 -0.1886572823
C   C70       1.0  0.10535  0.61902  0.46498  1.0000 -0.1886572823
C   C71       1.0  0.38098  0.48633  0.46498  1.0000 -0.1886572823
C   C72       1.0  0.51367  0.89465  0.46498  1.0000 -0.1886572823
C   C73       1.0  0.93819  0.42708  0.65811  1.0000 0.0765811015
C   C74       1.0  0.57292  0.51111  0.65811  1.0000 0.0765811015
C   C75       1.0  0.48889  0.06181  0.65811  1.0000 0.0765811015
C   C76       1.0  0.06181  0.57292  0.34189  1.0000 0.0765811015
C   C77       1.0  0.42708  0.48889  0.34189  1.0000 0.0765811015
C   C78       1.0  0.51111  0.93819  0.34189  1.0000 0.0765811015
C   C79       1.0  0.86049  0.36835  0.87155  1.0000 0.0765811015
C   C80       1.0  0.63165  0.49214  0.87155  1.0000 0.0765811015
C   C81       1.0  0.50786  0.13951  0.87155  1.0000 0.0765811015
C   C82       1.0  0.13951  0.63165  0.12845  1.0000 0.0765811015
C   C83       1.0  0.36835  0.50786  0.12845  1.0000 0.0765811015
C   C84       1.0  0.49214  0.86049  0.12845  1.0000 0.0765811015
C   C85       1.0  0.81335  0.32002  0.75700  1.0000 -0.204546763
C   C86       1.0  0.67998  0.49333  0.75700  1.0000 -0.204546763
C   C87       1.0  0.50667  0.18665  0.75700  1.0000 -0.204546763
C   C88       1.0  0.18665  0.67998  0.24300  1.0000 -0.204546763
C   C89       1.0  0.32002  0.50667  0.24300  1.0000 -0.204546763
C   C90       1.0  0.49333  0.81335  0.24300  1.0000 -0.204546763
N   N1        1.0  0.92342  0.42184  0.82502  1.0000 -0.2093189791
N   N2        1.0  0.57816  0.50158  0.82502  1.0000 -0.2093189791
N   N3        1.0  0.49842  0.07658  0.82502  1.0000 -0.2093189791
N   N4        1.0  0.07658  0.57816  0.17498  1.0000 -0.2093189791
N   N5        1.0  0.42184  0.49842  0.17498  1.0000 -0.2093189791
N   N6        1.0  0.50158  0.92342  0.17498  1.0000 -0.2093189791
O   O1        1.0  0.58200  0.07892  0.13490  1.0000 -0.4886661969
O   O2        1.0  0.92108  0.50308  0.13490  1.0000 -0.4886661969
O   O3        1.0  0.49692  0.41800  0.13490  1.0000 -0.4886661969
O   O4        1.0  0.41800  0.92108  0.86510  1.0000 -0.4886661969
O   O5        1.0  0.07892  0.49692  0.86510  1.0000 -0.4886661969
O   O6        1.0  0.50308  0.58200  0.86510  1.0000 -0.4886661969
O   O7        1.0  0.57230  0.99454  0.83303  1.0000 -0.4886661969
O   O8        1.0  0.00546  0.57776  0.83303  1.0000 -0.4886661969
O   O9        1.0  0.42224  0.42770  0.83303  1.0000 -0.4886661969
O   O10       1.0  0.42770  0.00546  0.16697  1.0000 -0.4886661969
O   O11       1.0  0.99454  0.42224  0.16697  1.0000 -0.4886661969
O   O12       1.0  0.57776  0.57230  0.16697  1.0000 -0.4886661969
