# DDEC6 charges by PACMAN v1.1 (https://github.com/mtap-research/PACMAN-charge/)
data_FATKAO_ASR_pacman
_symmetry_space_group_name_H-M   'P 1'
_cell_length_a   10.19000000
_cell_length_b   11.23200000
_cell_length_c   23.24000000
_cell_angle_alpha   90.00000000
_cell_angle_beta   108.94300000
_cell_angle_gamma   90.00000000
_symmetry_Int_Tables_number   1
_chemical_formula_structural   GdH4C7(NO3)2
_chemical_formula_sum   'Gd8 H32 C56 N16 O48'
_cell_volume   2515.85724776
_cell_formula_units_Z   8
loop_
 _symmetry_equiv_pos_site_id
 _symmetry_equiv_pos_as_xyz
  1  'x, y, z'
loop_
 _atom_site_type_symbol
 _atom_site_label
 _atom_site_symmetry_multiplicity
 _atom_site_fract_x
 _atom_site_fract_y
 _atom_site_fract_z
 _atom_site_occupancy
 _atom_site_charge
Gd  Gd1  1  0.11442000  0.31383000  0.72547000  1.0 1.8930854456
Gd  Gd2  1  0.88558000  0.81383000  0.77453000  1.0 1.8930854456
Gd  Gd3  1  0.88558000  0.68617000  0.27453000  1.0 1.8930854456
Gd  Gd4  1  0.11442000  0.18617000  0.22547000  1.0 1.8930854456
Gd  Gd5  1  0.30503000  0.58827000  0.56391000  1.0 2.0890020387
Gd  Gd6  1  0.69497000  0.08827000  0.93609000  1.0 2.0890020387
Gd  Gd7  1  0.69497000  0.41173000  0.43609000  1.0 2.0890020387
Gd  Gd8  1  0.30503000  0.91173000  0.06391000  1.0 2.0890020387
H  H1  1  0.67580000  0.61030000  0.92570000  1.0 0.1387107925
H  H2  1  0.32420000  0.11030000  0.57430000  1.0 0.1387107925
H  H3  1  0.32420000  0.38970000  0.07430000  1.0 0.1387107925
H  H4  1  0.67580000  0.88970000  0.42570000  1.0 0.1387107925
H  H5  1  0.81590000  0.63080000  0.91280000  1.0 0.1731823416
H  H6  1  0.18410000  0.13080000  0.58720000  1.0 0.1731823416
H  H7  1  0.18410000  0.36920000  0.08720000  1.0 0.1731823416
H  H8  1  0.81590000  0.86920000  0.41280000  1.0 0.1731823416
H  H9  1  0.71800000  0.73880000  0.91210000  1.0 0.1645531164
H  H10  1  0.28200000  0.23880000  0.58790000  1.0 0.1645531164
H  H11  1  0.28200000  0.26120000  0.08790000  1.0 0.1645531164
H  H12  1  0.71800000  0.76120000  0.41210000  1.0 0.1645531164
H  H13  1  0.83640000  0.33130000  0.79620000  1.0 0.181508805
H  H14  1  0.16360000  0.83130000  0.70380000  1.0 0.181508805
H  H15  1  0.16360000  0.66870000  0.20380000  1.0 0.181508805
H  H16  1  0.83640000  0.16870000  0.29620000  1.0 0.181508805
H  H17  1  0.71040000  0.41930000  0.78030000  1.0 0.1504978904
H  H18  1  0.28960000  0.91930000  0.71970000  1.0 0.1504978904
H  H19  1  0.28960000  0.58070000  0.21970000  1.0 0.1504978904
H  H20  1  0.71040000  0.08070000  0.28030000  1.0 0.1504978904
H  H21  1  0.68450000  0.28160000  0.77360000  1.0 0.1504978904
H  H22  1  0.31550000  0.78160000  0.72640000  1.0 0.1504978904
H  H23  1  0.31550000  0.71840000  0.22640000  1.0 0.1504978904
H  H24  1  0.68450000  0.21840000  0.27360000  1.0 0.1504978904
H  H25  1  0.49720000  0.52950000  0.83520000  1.0 0.3092550816
H  H26  1  0.50280000  0.02950000  0.66480000  1.0 0.3092550816
H  H27  1  0.50280000  0.47050000  0.16480000  1.0 0.3092550816
H  H28  1  0.49720000  0.97050000  0.33520000  1.0 0.3092550816
H  H29  1  0.54340000  0.38200000  0.66140000  1.0 0.2922970237
H  H30  1  0.45660000  0.88200000  0.83860000  1.0 0.2922970237
H  H31  1  0.45660000  0.61800000  0.33860000  1.0 0.2922970237
H  H32  1  0.54340000  0.11800000  0.16140000  1.0 0.2922970237
C  C1  1  0.60050000  0.68870000  0.67940000  1.0 0.6229267375
C  C2  1  0.39950000  0.18870000  0.82060000  1.0 0.6229267375
C  C3  1  0.39950000  0.31130000  0.32060000  1.0 0.6229267375
C  C4  1  0.60050000  0.81130000  0.17940000  1.0 0.6229267375
C  C5  1  0.58690000  0.64600000  0.73750000  1.0 -0.0357154399
C  C6  1  0.41310000  0.14600000  0.76250000  1.0 -0.0357154399
C  C7  1  0.41310000  0.35400000  0.26250000  1.0 -0.0357154399
C  C8  1  0.58690000  0.85400000  0.23750000  1.0 -0.0357154399
C  C9  1  0.49420000  0.57290000  0.75150000  1.0 -0.0194546067
C  C10  1  0.50580000  0.07290000  0.74850000  1.0 -0.0194546067
C  C11  1  0.50580000  0.42710000  0.24850000  1.0 -0.0194546067
C  C12  1  0.49420000  0.92710000  0.25150000  1.0 -0.0194546067
C  C13  1  0.37570000  0.49520000  0.71630000  1.0 0.6018337862
C  C14  1  0.62430000  0.99520000  0.78370000  1.0 0.6018337862
C  C15  1  0.62430000  0.50480000  0.28370000  1.0 0.6018337862
C  C16  1  0.37570000  0.00480000  0.21630000  1.0 0.6018337862
C  C17  1  0.64770000  0.63670000  0.83560000  1.0 0.4292486863
C  C18  1  0.35230000  0.13670000  0.66440000  1.0 0.4292486863
C  C19  1  0.35230000  0.36330000  0.16440000  1.0 0.4292486863
C  C20  1  0.64770000  0.86330000  0.33560000  1.0 0.4292486863
C  C21  1  0.72100000  0.65590000  0.90260000  1.0 -0.5011673613
C  C22  1  0.27900000  0.15590000  0.59740000  1.0 -0.5011673613
C  C23  1  0.27900000  0.34410000  0.09740000  1.0 -0.5011673613
C  C24  1  0.72100000  0.84410000  0.40260000  1.0 -0.5011673613
C  C25  1  0.89540000  0.34720000  0.58760000  1.0 0.6499724345
C  C26  1  0.10460000  0.84720000  0.91240000  1.0 0.6499724345
C  C27  1  0.10460000  0.65280000  0.41240000  1.0 0.6499724345
C  C28  1  0.89540000  0.15280000  0.08760000  1.0 0.6499724345
C  C29  1  0.79810000  0.35040000  0.62380000  1.0 0.0131044038
C  C30  1  0.20190000  0.85040000  0.87620000  1.0 0.0131044038
C  C31  1  0.20190000  0.64960000  0.37620000  1.0 0.0131044038
C  C32  1  0.79810000  0.14960000  0.12380000  1.0 0.0131044038
C  C33  1  0.65630000  0.37130000  0.60570000  1.0 -0.0194546067
C  C34  1  0.34370000  0.87130000  0.89430000  1.0 -0.0194546067
C  C35  1  0.34370000  0.62870000  0.39430000  1.0 -0.0194546067
C  C36  1  0.65630000  0.12870000  0.10570000  1.0 -0.0194546067
C  C37  1  0.54180000  0.38510000  0.54740000  1.0 0.6391494529
C  C38  1  0.45820000  0.88510000  0.95260000  1.0 0.6391494529
C  C39  1  0.45820000  0.61490000  0.45260000  1.0 0.6391494529
C  C40  1  0.54180000  0.11490000  0.04740000  1.0 0.6391494529
C  C41  1  0.74360000  0.35130000  0.70610000  1.0 0.4179425047
C  C42  1  0.25640000  0.85130000  0.79390000  1.0 0.4179425047
C  C43  1  0.25640000  0.64870000  0.29390000  1.0 0.4179425047
C  C44  1  0.74360000  0.14870000  0.20610000  1.0 0.4179425047
C  C45  1  0.74370000  0.34540000  0.76960000  1.0 -0.5274559153
C  C46  1  0.25630000  0.84540000  0.73040000  1.0 -0.5274559153
C  C47  1  0.25630000  0.65460000  0.23040000  1.0 -0.5274559153
C  C48  1  0.74370000  0.15460000  0.26960000  1.0 -0.5274559153
C  C49  1  0.01740000  0.59240000  0.72150000  1.0 0.4733780505
C  C50  1  0.98260000  0.09240000  0.77850000  1.0 0.4733780505
C  C51  1  0.98260000  0.40760000  0.27850000  1.0 0.4733780505
C  C52  1  0.01740000  0.90760000  0.22150000  1.0 0.4733780505
C  C53  1  0.02170000  0.54670000  0.78500000  1.0 0.4763862
C  C54  1  0.97830000  0.04670000  0.71500000  1.0 0.4763862
C  C55  1  0.97830000  0.45330000  0.21500000  1.0 0.4763862
C  C56  1  0.02170000  0.95330000  0.28500000  1.0 0.4763862
N  N1  1  0.68640000  0.68760000  0.79160000  1.0 -0.4807286231
N  N2  1  0.31360000  0.18760000  0.70840000  1.0 -0.4807286231
N  N3  1  0.31360000  0.31240000  0.20840000  1.0 -0.4807286231
N  N4  1  0.68640000  0.81240000  0.29160000  1.0 -0.4807286231
N  N5  1  0.53670000  0.56930000  0.81380000  1.0 -0.2604266448
N  N6  1  0.46330000  0.06930000  0.68620000  1.0 -0.2604266448
N  N7  1  0.46330000  0.43070000  0.18620000  1.0 -0.2604266448
N  N8  1  0.53670000  0.93070000  0.31380000  1.0 -0.2604266448
N  N9  1  0.85060000  0.34010000  0.68600000  1.0 -0.4807286231
N  N10  1  0.14940000  0.84010000  0.81400000  1.0 -0.4807286231
N  N11  1  0.14940000  0.65990000  0.31400000  1.0 -0.4807286231
N  N12  1  0.85060000  0.15990000  0.18600000  1.0 -0.4807286231
N  N13  1  0.62450000  0.37130000  0.65850000  1.0 -0.2658946855
N  N14  1  0.37550000  0.87130000  0.84150000  1.0 -0.2658946855
N  N15  1  0.37550000  0.62870000  0.34150000  1.0 -0.2658946855
N  N16  1  0.62450000  0.12870000  0.15850000  1.0 -0.2658946855
O  O1  1  0.50990000  0.66370000  0.63100000  1.0 -0.6497594459
O  O2  1  0.49010000  0.16370000  0.86900000  1.0 -0.6497594459
O  O3  1  0.49010000  0.33630000  0.36900000  1.0 -0.6497594459
O  O4  1  0.50990000  0.83630000  0.13100000  1.0 -0.6497594459
O  O5  1  0.70710000  0.74700000  0.68220000  1.0 -0.5517958942
O  O6  1  0.29290000  0.24700000  0.81780000  1.0 -0.5517958942
O  O7  1  0.29290000  0.25300000  0.31780000  1.0 -0.5517958942
O  O8  1  0.70710000  0.75300000  0.18220000  1.0 -0.5517958942
O  O9  1  0.34460000  0.48660000  0.65880000  1.0 -0.6986023529
O  O10  1  0.65540000  0.98660000  0.84120000  1.0 -0.6986023529
O  O11  1  0.65540000  0.51340000  0.34120000  1.0 -0.6986023529
O  O12  1  0.34460000  0.01340000  0.15880000  1.0 -0.6986023529
O  O13  1  0.01910000  0.32340000  0.61620000  1.0 -0.588821326
O  O14  1  0.98090000  0.82340000  0.88380000  1.0 -0.588821326
O  O15  1  0.98090000  0.67660000  0.38380000  1.0 -0.588821326
O  O16  1  0.01910000  0.17660000  0.11620000  1.0 -0.588821326
O  O17  1  0.31830000  0.43950000  0.74740000  1.0 -0.588821326
O  O18  1  0.68170000  0.93950000  0.75260000  1.0 -0.588821326
O  O19  1  0.68170000  0.56050000  0.25260000  1.0 -0.588821326
O  O20  1  0.31830000  0.06050000  0.24740000  1.0 -0.588821326
O  O21  1  0.85240000  0.37010000  0.53190000  1.0 -0.7072019769
O  O22  1  0.14760000  0.87010000  0.96810000  1.0 -0.7072019769
O  O23  1  0.14760000  0.62990000  0.46810000  1.0 -0.7072019769
O  O24  1  0.85240000  0.12990000  0.03190000  1.0 -0.7072019769
O  O25  1  0.55830000  0.36460000  0.49830000  1.0 -0.588821326
O  O26  1  0.44170000  0.86460000  0.00170000  1.0 -0.588821326
O  O27  1  0.44170000  0.63540000  0.50170000  1.0 -0.588821326
O  O28  1  0.55830000  0.13540000  0.99830000  1.0 -0.588821326
O  O29  1  0.42540000  0.41480000  0.55320000  1.0 -0.6890491588
O  O30  1  0.57460000  0.91480000  0.94680000  1.0 -0.6890491588
O  O31  1  0.57460000  0.58520000  0.44680000  1.0 -0.6890491588
O  O32  1  0.42540000  0.08520000  0.05320000  1.0 -0.6890491588
O  O33  1  0.05450000  0.52140000  0.68820000  1.0 -0.5517958942
O  O34  1  0.94550000  0.02140000  0.81180000  1.0 -0.5517958942
O  O35  1  0.94550000  0.47860000  0.31180000  1.0 -0.5517958942
O  O36  1  0.05450000  0.97860000  0.18820000  1.0 -0.5517958942
O  O37  1  0.97720000  0.69650000  0.70860000  1.0 -0.543460582
O  O38  1  0.02280000  0.19650000  0.79140000  1.0 -0.543460582
O  O39  1  0.02280000  0.30350000  0.29140000  1.0 -0.543460582
O  O40  1  0.97720000  0.80350000  0.20860000  1.0 -0.543460582
O  O41  1  0.07220000  0.44350000  0.79950000  1.0 -0.5647123201
O  O42  1  0.92780000  0.94350000  0.70050000  1.0 -0.5658705576
O  O43  1  0.92780000  0.55650000  0.20050000  1.0 -0.5658705576
O  O44  1  0.07220000  0.05650000  0.29950000  1.0 -0.5658705576
O  O45  1  0.97530000  0.61440000  0.81600000  1.0 -0.5517958942
O  O46  1  0.02470000  0.11440000  0.68400000  1.0 -0.5517958942
O  O47  1  0.02470000  0.38560000  0.18400000  1.0 -0.5517958942
O  O48  1  0.97530000  0.88560000  0.31600000  1.0 -0.5517958942
