# DDEC6 charges by PACMAN v1.1 (https://github.com/mtap-research/PACMAN-charge/)
data_2012[Cu][kgd]3[ASR]1
_chemical_formula_sum              "Cu4 H54 C56 N10 O20"
_cell_length_a       11.575
_cell_length_b       12.634
_cell_length_c       14.335
_cell_angle_alpha    101.369
_cell_angle_beta     102.935
_cell_angle_gamma    96.457

_symmetry_space_group_name_H-M    "P 1"
_symmetry_Int_Tables_number       1

loop_
  _symmetry_equiv_pos_as_xyz
  'x, y, z'

loop_
  _atom_site_type_symbol
  _atom_site_label
  _atom_site_symmetry_multiplicity
  _atom_site_fract_x
  _atom_site_fract_y
  _atom_site_fract_z
  _atom_site_occupancy
  _atom_site_charge
Cu  Cu1       1.0  0.09965  0.06298  0.71442  1.0000 0.8237913476
Cu  Cu2       1.0  0.90035  0.93702  0.28558  1.0000 0.8237913476
Cu  Cu3       1.0  0.89385  0.04998  0.51644  1.0000 0.6545315014
Cu  Cu4       1.0  0.10615  0.95002  0.48356  1.0000 0.6545315014
H   H1        1.0  0.43840  0.30500  0.53070  1.0000 0.1214442683
H   H2        1.0  0.56160  0.69500  0.46930  1.0000 0.1214442683
H   H3        1.0  0.42770  0.40880  0.28620  1.0000 0.1214442683
H   H4        1.0  0.57230  0.59120  0.71380  1.0000 0.1214442683
H   H5        1.0  0.74390  0.43440  0.47680  1.0000 0.1214442683
H   H6        1.0  0.25610  0.56560  0.52320  1.0000 0.1214442683
H   H7        1.0  0.81940  0.31710  0.76590  1.0000 0.1402612256
H   H8        1.0  0.18060  0.68290  0.23410  1.0000 0.1402612256
H   H9        1.0  0.93220  0.38420  0.74900  1.0000 0.1503542514
H   H10       1.0  0.06780  0.61580  0.25100  1.0000 0.1503542514
H   H11       1.0  0.05260  0.28670  0.34380  1.0000 0.1298720764
H   H12       1.0  0.94740  0.71330  0.65620  1.0000 0.1298720764
H   H13       1.0  0.05330  0.28810  0.45360  1.0000 0.1402612256
H   H14       1.0  0.94670  0.71190  0.54640  1.0000 0.1402612256
H   H15       1.0  0.59230  0.66080  0.17900  1.0000 0.1298720764
H   H16       1.0  0.40770  0.33920  0.82100  1.0000 0.1298720764
H   H17       1.0  0.69850  0.59430  0.17940  1.0000 0.1402612256
H   H18       1.0  0.30150  0.40570  0.82060  1.0000 0.1402612256
H   H19       1.0  0.66360  0.89380  0.47020  1.0000 0.1214442683
H   H20       1.0  0.33640  0.10620  0.52980  1.0000 0.1214442683
H   H21       1.0  0.47240  0.87880  0.39290  1.0000 0.1402612256
H   H22       1.0  0.52760  0.12120  0.60710  1.0000 0.1402612256
H   H23       1.0  0.55140  0.15580  0.30600  1.0000 0.1402612256
H   H24       1.0  0.44860  0.84420  0.69400  1.0000 0.1402612256
H   H25       1.0  0.74520  0.16780  0.39190  1.0000 0.1149925517
H   H26       1.0  0.25480  0.83220  0.60810  1.0000 0.1149925517
H   H27       1.0  0.31960  0.05340  0.33800  1.0000 0.1298720764
H   H28       1.0  0.68040  0.94660  0.66200  1.0000 0.1298720764
H   H29       1.0  0.31390  0.92910  0.29120  1.0000 0.1298720764
H   H30       1.0  0.68610  0.07090  0.70880  1.0000 0.1298720764
H   H31       1.0  0.36950  0.09770  0.20050  1.0000 0.0973639912
H   H32       1.0  0.63050  0.90230  0.79950  1.0000 0.0973639912
H   H33       1.0  0.35810  0.97260  0.15350  1.0000 0.0973639912
H   H34       1.0  0.64190  0.02740  0.84650  1.0000 0.0973639912
H   H35       1.0  0.15650  0.07890  0.18930  1.0000 0.1298720764
H   H36       1.0  0.84350  0.92110  0.81070  1.0000 0.1298720764
H   H37       1.0  0.14170  0.95070  0.15620  1.0000 0.1298720764
H   H38       1.0  0.85830  0.04930  0.84380  1.0000 0.1298720764
H   H39       1.0  0.15550  0.86870  0.98430  1.0000 0.1402612256
H   H40       1.0  0.84450  0.13130  0.01570  1.0000 0.1402612256
H   H41       1.0  0.13730  0.89000  0.82780  1.0000 0.1214442683
H   H42       1.0  0.86270  0.11000  0.17220  1.0000 0.1214442683
H   H43       1.0  0.13470  0.19920  0.91030  1.0000 0.1214442683
H   H44       1.0  0.86530  0.80080  0.08970  1.0000 0.1214442683
H   H45       1.0  0.16720  0.18880  0.06970  1.0000 0.1503542514
H   H46       1.0  0.83280  0.81120  0.93030  1.0000 0.1503542514
H   H47       1.0  0.82180  0.39660  0.60450  1.0000 0.2802756952
H   H48       1.0  0.17820  0.60340  0.39550  1.0000 0.2802756952
H   H49       1.0  0.25310  0.31610  0.49200  1.0000 0.2802756952
H   H50       1.0  0.74690  0.68390  0.50800  1.0000 0.2802756952
H   H51       1.0  0.53200  0.56890  0.28160  1.0000 0.2736450957
H   H52       1.0  0.46800  0.43110  0.71840  1.0000 0.2736450957
H   H53       1.0  0.20090  0.96240  0.53250  1.0000 0.1298720764
H   H54       1.0  0.79910  0.03760  0.46750  1.0000 0.1298720764
C   C1        1.0  0.60300  0.36950  0.52180  1.0000 -0.0183310721
C   C2        1.0  0.39700  0.63050  0.47820  1.0000 -0.0183310721
C   C3        1.0  0.47770  0.33680  0.49070  1.0000 -0.1397944091
C   C4        1.0  0.52230  0.66320  0.50930  1.0000 -0.1397944091
C   C5        1.0  0.41250  0.35030  0.40360  1.0000 -0.0183310721
C   C6        1.0  0.58750  0.64970  0.59640  1.0000 -0.0183310721
C   C7        1.0  0.47190  0.39910  0.34570  1.0000 -0.1397944091
C   C8        1.0  0.52810  0.60090  0.65430  1.0000 -0.1397944091
C   C9        1.0  0.59240  0.43320  0.37230  1.0000 -0.0133942638
C   C10       1.0  0.40760  0.56680  0.62770  1.0000 -0.0133942638
C   C11       1.0  0.66060  0.41560  0.45980  1.0000 -0.1687542869
C   C12       1.0  0.33940  0.58440  0.54020  1.0000 -0.1687542869
C   C13       1.0  0.66890  0.35130  0.61930  1.0000 0.4427460359
C   C14       1.0  0.33110  0.64870  0.38070  1.0000 0.4427460359
C   C15       1.0  0.86290  0.32760  0.71710  1.0000 -0.1896168066
C   C16       1.0  0.13710  0.67240  0.28290  1.0000 -0.1896168066
C   C17       1.0  0.90530  0.22320  0.68050  1.0000 0.5997391767
C   C18       1.0  0.09470  0.77680  0.31950  1.0000 0.5997391767
C   C19       1.0  0.28220  0.31630  0.36840  1.0000 0.4349415826
C   C20       1.0  0.71780  0.68370  0.63160  1.0000 0.4349415826
C   C21       1.0  0.08900  0.26010  0.40070  1.0000 -0.1985664142
C   C22       1.0  0.91100  0.73990  0.59930  1.0000 -0.1985664142
C   C23       1.0  0.06290  0.13660  0.37560  1.0000 0.5997391767
C   C24       1.0  0.93710  0.86340  0.62440  1.0000 0.5997391767
C   C25       1.0  0.66210  0.49220  0.31550  1.0000 0.4558492826
C   C26       1.0  0.33790  0.50780  0.68450  1.0000 0.4558492826
C   C27       1.0  0.65660  0.63640  0.22130  1.0000 -0.1985664142
C   C28       1.0  0.34340  0.36360  0.77870  1.0000 -0.1985664142
C   C29       1.0  0.74340  0.73580  0.28660  1.0000 0.5997391767
C   C30       1.0  0.25660  0.26420  0.71340  1.0000 0.5997391767
C   C31       1.0  0.63980  0.94700  0.43690  1.0000 0.0399219377
C   C32       1.0  0.36020  0.05300  0.56310  1.0000 0.0399219377
C   C33       1.0  0.52680  0.93800  0.39090  1.0000 -0.1896168066
C   C34       1.0  0.47320  0.06200  0.60910  1.0000 -0.1896168066
C   C35       1.0  0.48670  0.01240  0.34060  1.0000 0.1696961226
C   C36       1.0  0.51330  0.98760  0.65940  1.0000 0.1696961226
C   C37       1.0  0.57360  0.10280  0.34000  1.0000 -0.2063819392
C   C38       1.0  0.42640  0.89720  0.66000  1.0000 -0.2063819392
C   C39       1.0  0.68890  0.10840  0.39040  1.0000 0.0709302576
C   C40       1.0  0.31110  0.89160  0.60960  1.0000 0.0709302576
C   C41       1.0  0.35310  0.00260  0.29550  1.0000 -0.2577520086
C   C42       1.0  0.64690  0.99740  0.70450  1.0000 -0.2577520086
C   C43       1.0  0.32790  0.02540  0.19700  1.0000 -0.1261808907
C   C44       1.0  0.67210  0.97460  0.80300  1.0000 -0.1261808907
C   C45       1.0  0.18540  0.01910  0.15230  1.0000 -0.2456477953
C   C46       1.0  0.81460  0.98090  0.84770  1.0000 -0.2447672112
C   C47       1.0  0.16670  0.02700  0.04740  1.0000 0.1644588785
C   C48       1.0  0.83330  0.97300  0.95260  1.0000 0.1644588785
C   C49       1.0  0.15420  0.93800  0.97160  1.0000 -0.1985664142
C   C50       1.0  0.84580  0.06200  0.02840  1.0000 -0.1985664142
C   C51       1.0  0.13970  0.95080  0.87720  1.0000 0.0709302576
C   C52       1.0  0.86030  0.04920  0.12280  1.0000 0.0709302576
C   C53       1.0  0.14000  0.13120  0.92520  1.0000 0.0973639912
C   C54       1.0  0.86000  0.86880  0.07480  1.0000 0.0973639912
C   C55       1.0  0.15920  0.12550  0.02130  1.0000 -0.1985664142
C   C56       1.0  0.84080  0.87450  0.97870  1.0000 -0.1985664142
N   N1        1.0  0.78690  0.36360  0.64040  1.0000 -0.2968979551
N   N2        1.0  0.21310  0.63640  0.35960  1.0000 -0.2968979551
N   N3        1.0  0.21760  0.30110  0.43030  1.0000 -0.2807666732
N   N4        1.0  0.78240  0.69890  0.56970  1.0000 -0.2807666732
N   N5        1.0  0.60360  0.56430  0.27550  1.0000 -0.3131820632
N   N6        1.0  0.39640  0.43570  0.72450  1.0000 -0.3131820632
N   N7        1.0  0.72490  0.03310  0.43750  1.0000 -0.2063819392
N   N8        1.0  0.27510  0.96690  0.56250  1.0000 -0.2063819392
N   N9        1.0  0.12880  0.04670  0.85280  1.0000 -0.2251985742
N   N10       1.0  0.87120  0.95330  0.14720  1.0000 -0.2242504282
O   O1        1.0  0.61060  0.32500  0.67660  1.0000 -0.502997048
O   O2        1.0  0.38940  0.67500  0.32340  1.0000 -0.502997048
O   O3        1.0  0.87500  0.18780  0.59100  1.0000 -0.4838967247
O   O4        1.0  0.12500  0.81220  0.40900  1.0000 -0.4838967247
O   O5        1.0  0.96650  0.18350  0.74333  1.0000 -0.5556942893
O   O6        1.0  0.03350  0.81650  0.25667  1.0000 -0.5556942893
O   O7        1.0  0.23180  0.30310  0.27762  1.0000 -0.5133772863
O   O8        1.0  0.76820  0.69690  0.72238  1.0000 -0.5133772863
O   O9        1.0  0.14260  0.08100  0.39694  1.0000 -0.5133772863
O   O10       1.0  0.85740  0.91900  0.60306  1.0000 -0.5133772863
O   O11       1.0  0.95150  0.09680  0.33530  1.0000 -0.5768817736
O   O12       1.0  0.04850  0.90320  0.66470  1.0000 -0.5768817736
O   O13       1.0  0.76050  0.47810  0.30685  1.0000 -0.4689075274
O   O14       1.0  0.23950  0.52190  0.69315  1.0000 -0.4689075274
O   O15       1.0  0.78100  0.74140  0.37523  1.0000 -0.4838967247
O   O16       1.0  0.21900  0.25860  0.62477  1.0000 -0.4838967247
O   O17       1.0  0.76920  0.80740  0.24180  1.0000 -0.5449194981
O   O18       1.0  0.23080  0.19260  0.75820  1.0000 -0.5449194981
O   O19       1.0  0.06830  0.07230  0.57682  1.0000 -0.6750193311
O   O20       1.0  0.93170  0.92770  0.42318  1.0000 -0.6750193311
