# DDEC6 charges by PACMAN v1.1 (https://github.com/mtap-research/PACMAN-charge/)
data_2012[Tm][mog]3[ASR]1
_chemical_formula_sum              "Tm2 H6 C18 N6 O12"
_cell_length_a       6.02
_cell_length_b       12.7722
_cell_length_c       13.1612
_cell_angle_alpha    118.829
_cell_angle_beta     90.609
_cell_angle_gamma    91.687

_symmetry_space_group_name_H-M    "P 1"
_symmetry_Int_Tables_number       1

loop_
  _symmetry_equiv_pos_as_xyz
  'x, y, z'

loop_
  _atom_site_type_symbol
  _atom_site_label
  _atom_site_symmetry_multiplicity
  _atom_site_fract_x
  _atom_site_fract_y
  _atom_site_fract_z
  _atom_site_occupancy
  _atom_site_charge
Tm  Tm1       1.0  0.22197  0.33935  0.17829  1.0000 1.8484710345
Tm  Tm2       1.0  0.77803  0.66065  0.82171  1.0000 1.8484710345
H   H1        1.0  0.30720  0.46590  0.83930  1.0000 0.1311714166
H   H2        1.0  0.69280  0.53410  0.16070  1.0000 0.1311714166
H   H3        1.0  0.91680  0.11810  0.92150  1.0000 0.1507510135
H   H4        1.0  0.08320  0.88190  0.07850  1.0000 0.1507510135
H   H5        1.0  0.35380  0.44100  0.48490  1.0000 0.1311714166
H   H6        1.0  0.64620  0.55900  0.51510  1.0000 0.1311714166
C   C1        1.0  0.38940  0.48110  0.90550  1.0000 0.0803006293
C   C2        1.0  0.61060  0.51890  0.09450  1.0000 0.0803006293
C   C3        1.0  0.31160  0.43370  0.97240  1.0000 0.0544352421
C   C4        1.0  0.68840  0.56630  0.02760  1.0000 0.0544352421
C   C5        1.0  0.09600  0.36000  0.94560  1.0000 0.5702152738
C   C6        1.0  0.90400  0.64000  0.05440  1.0000 0.5702152738
C   C7        1.0  0.11730  0.04930  0.10000  1.0000 0.0705996493
C   C8        1.0  0.88270  0.95070  0.90000  1.0000 0.0705996493
C   C9        1.0  0.95270  0.07120  0.95530  1.0000 0.0803006293
C   C10       1.0  0.04730  0.92880  0.04470  1.0000 0.0803006293
C   C11       1.0  0.24980  0.10700  0.21310  1.0000 0.5702152738
C   C12       1.0  0.75020  0.89300  0.78690  1.0000 0.5702152738
C   C13       1.0  0.87610  0.46040  0.40340  1.0000 0.0588360542
C   C14       1.0  0.12390  0.53960  0.59660  1.0000 0.0588360542
C   C15       1.0  0.20840  0.46520  0.48940  1.0000 0.0588360542
C   C16       1.0  0.79160  0.53480  0.51060  1.0000 0.0705996493
C   C17       1.0  0.73820  0.40590  0.29390  1.0000 0.5976828823
C   C18       1.0  0.26180  0.59410  0.70610  1.0000 0.5976828823
N   N1        1.0  0.57640  0.54780  0.93010  1.0000 -0.3006211033
N   N2        1.0  0.42360  0.45220  0.06990  1.0000 -0.3006211033
N   N3        1.0  0.07030  0.12110  0.05580  1.0000 -0.2889201751
N   N4        1.0  0.92970  0.87890  0.94420  1.0000 -0.2889201751
N   N5        1.0  0.08580  0.42690  0.39140  1.0000 -0.2889201751
N   N6        1.0  0.91420  0.57310  0.60860  1.0000 -0.2889201751
O   O1        1.0  0.04970  0.32090  0.01470  1.0000 -0.6539274863
O   O2        1.0  0.95030  0.67910  0.98530  1.0000 -0.6539274863
O   O3        1.0  0.97980  0.34440  0.86120  1.0000 -0.5045885852
O   O4        1.0  0.02020  0.65560  0.13880  1.0000 -0.5045885852
O   O5        1.0  0.30660  0.21440  0.25200  1.0000 -0.631347548
O   O6        1.0  0.69340  0.78560  0.74800  1.0000 -0.631347548
O   O7        1.0  0.30040  0.04400  0.25620  1.0000 -0.480879452
O   O8        1.0  0.69960  0.95600  0.74380  1.0000 -0.480879452
O   O9        1.0  0.53690  0.43110  0.29600  1.0000 -0.6406846157
O   O10       1.0  0.46310  0.56890  0.70400  1.0000 -0.6406846157
O   O11       1.0  0.83570  0.33420  0.20310  1.0000 -0.6189792266
O   O12       1.0  0.16430  0.66580  0.79690  1.0000 -0.6189792266
