# DDEC6 charges by PACMAN v1.1 (https://github.com/mtap-research/PACMAN-charge/)
data_2005[Zn][nan]3[ASR]2
_chemical_formula_sum              "Zn18 H60 C96 O60"
_cell_length_a       17.7374
_cell_length_b       15.2605
_cell_length_c       19.8565
_cell_angle_alpha    90
_cell_angle_beta     122.198
_cell_angle_gamma    90

_symmetry_space_group_name_H-M    "P 1"
_symmetry_Int_Tables_number       1

loop_
  _symmetry_equiv_pos_as_xyz
  'x, y, z'

loop_
  _atom_site_type_symbol
  _atom_site_label
  _atom_site_symmetry_multiplicity
  _atom_site_fract_x
  _atom_site_fract_y
  _atom_site_fract_z
  _atom_site_occupancy
  _atom_site_charge
Zn  Zn1       1.0  0.00000  0.00000  0.00000  1.0000 1.0435613655
Zn  Zn2       1.0  0.00000  0.50000  0.50000  1.0000 1.0435613655
Zn  Zn3       1.0  0.33399  0.50460  0.83424  1.0000 1.0435613655
Zn  Zn4       1.0  0.66601  0.00460  0.66576  1.0000 1.0435613655
Zn  Zn5       1.0  0.66601  0.49540  0.16576  1.0000 1.0460587524
Zn  Zn6       1.0  0.33399  0.99540  0.33424  1.0000 1.0435613655
Zn  Zn7       1.0  0.16419  0.90361  0.16618  1.0000 0.952477374
Zn  Zn8       1.0  0.83581  0.40361  0.33382  1.0000 0.952477374
Zn  Zn9       1.0  0.83581  0.09639  0.83382  1.0000 0.952477374
Zn  Zn10      1.0  0.16419  0.59639  0.66618  1.0000 0.952477374
Zn  Zn11      1.0  0.49748  0.40397  0.99521  1.0000 0.9599496134
Zn  Zn12      1.0  0.50252  0.90397  0.50479  1.0000 0.9599496134
Zn  Zn13      1.0  0.50252  0.59603  0.00479  1.0000 0.9599496134
Zn  Zn14      1.0  0.49748  0.09603  0.49521  1.0000 0.9599496134
Zn  Zn15      1.0  0.16909  0.09316  0.16714  1.0000 0.9599496134
Zn  Zn16      1.0  0.83091  0.59316  0.33286  1.0000 0.9599496134
Zn  Zn17      1.0  0.83091  0.90684  0.83286  1.0000 0.9599496134
Zn  Zn18      1.0  0.16909  0.40684  0.66714  1.0000 0.9599496134
H   H1        1.0  0.29530  0.50490  0.68810  1.0000 0.4032698182
H   H2        1.0  0.70470  0.00490  0.81190  1.0000 0.4032698182
H   H3        1.0  0.70470  0.49510  0.31190  1.0000 0.4032698182
H   H4        1.0  0.29530  0.99510  0.18810  1.0000 0.4032698182
H   H5        1.0  0.37230  0.50010  0.97990  1.0000 0.4032698182
H   H6        1.0  0.62770  0.00010  0.52010  1.0000 0.4032698182
H   H7        1.0  0.62770  0.49990  0.02010  1.0000 0.4032698182
H   H8        1.0  0.37230  0.99990  0.47990  1.0000 0.4032698182
H   H9        1.0  0.03840  0.00280  0.14540  1.0000 0.4032698182
H   H10       1.0  0.96160  0.50280  0.35460  1.0000 0.4032698182
H   H11       1.0  0.96160  0.99720  0.85460  1.0000 0.4032698182
H   H12       1.0  0.03840  0.49720  0.64540  1.0000 0.4032698182
H   H13       1.0  0.63030  0.17560  0.79800  1.0000 0.1183372997
H   H14       1.0  0.36970  0.67560  0.70200  1.0000 0.1183372997
H   H15       1.0  0.36970  0.82440  0.20200  1.0000 0.1183372997
H   H16       1.0  0.63030  0.32440  0.29800  1.0000 0.1183372997
H   H17       1.0  0.59940  0.25180  0.88030  1.0000 0.1183372997
H   H18       1.0  0.40060  0.75180  0.61970  1.0000 0.1183372997
H   H19       1.0  0.40060  0.74820  0.11970  1.0000 0.1183372997
H   H20       1.0  0.59940  0.24820  0.38030  1.0000 0.1183372997
H   H21       1.0  0.41620  0.39380  0.69430  1.0000 0.1183372997
H   H22       1.0  0.58380  0.89380  0.80570  1.0000 0.1183372997
H   H23       1.0  0.58380  0.60620  0.30570  1.0000 0.1183372997
H   H24       1.0  0.41620  0.10620  0.19430  1.0000 0.1183372997
H   H25       1.0  0.44270  0.31210  0.61060  1.0000 0.1183372997
H   H26       1.0  0.55730  0.81210  0.88940  1.0000 0.1183372997
H   H27       1.0  0.55730  0.68790  0.38940  1.0000 0.1183372997
H   H28       1.0  0.44270  0.18790  0.11060  1.0000 0.1183372997
H   H29       1.0  0.08810  0.88050  0.87060  1.0000 0.1183372997
H   H30       1.0  0.91190  0.38050  0.62940  1.0000 0.1183372997
H   H31       1.0  0.91190  0.11950  0.12940  1.0000 0.1183372997
H   H32       1.0  0.08810  0.61950  0.37060  1.0000 0.1183372997
H   H33       1.0  0.11050  0.79370  0.78710  1.0000 0.1183372997
H   H34       1.0  0.88950  0.29370  0.71290  1.0000 0.1183372997
H   H35       1.0  0.88950  0.20630  0.21290  1.0000 0.1183372997
H   H36       1.0  0.11050  0.70630  0.28710  1.0000 0.1183372997
H   H37       1.0  0.24300  0.61830  0.96310  1.0000 0.1183372997
H   H38       1.0  0.75700  0.11830  0.53690  1.0000 0.1183372997
H   H39       1.0  0.75700  0.38170  0.03690  1.0000 0.1183372997
H   H40       1.0  0.24300  0.88170  0.46310  1.0000 0.1183372997
H   H41       1.0  0.22000  0.70520  0.04670  1.0000 0.1183372997
H   H42       1.0  0.78000  0.20520  0.45330  1.0000 0.1183372997
H   H43       1.0  0.78000  0.29480  0.95330  1.0000 0.1183372997
H   H44       1.0  0.22000  0.79480  0.54670  1.0000 0.1183372997
H   H45       1.0  0.30710  0.32280  0.97360  1.0000 0.1183372997
H   H46       1.0  0.69290  0.82280  0.52640  1.0000 0.1183372997
H   H47       1.0  0.69290  0.67720  0.02640  1.0000 0.1183372997
H   H48       1.0  0.30710  0.17720  0.47360  1.0000 0.1183372997
H   H49       1.0  0.26880  0.25320  0.05470  1.0000 0.1183372997
H   H50       1.0  0.73120  0.75320  0.44530  1.0000 0.1183372997
H   H51       1.0  0.73120  0.74680  0.94530  1.0000 0.1183372997
H   H52       1.0  0.26880  0.24680  0.55470  1.0000 0.1183372997
H   H53       1.0  0.03690  0.17670  0.86310  1.0000 0.1183372997
H   H54       1.0  0.96310  0.67670  0.63690  1.0000 0.1183372997
H   H55       1.0  0.96310  0.82330  0.13690  1.0000 0.1183372997
H   H56       1.0  0.03690  0.32330  0.36310  1.0000 0.1183372997
H   H57       1.0  0.07360  0.24750  0.78190  1.0000 0.1183372997
H   H58       1.0  0.92640  0.74750  0.71810  1.0000 0.1183372997
H   H59       1.0  0.92640  0.75250  0.21810  1.0000 0.1183372997
H   H60       1.0  0.07360  0.25250  0.28190  1.0000 0.1183372997
C   C1        1.0  0.55170  0.17510  0.64220  1.0000 0.5970738195
C   C2        1.0  0.44830  0.67510  0.85780  1.0000 0.5970738195
C   C3        1.0  0.44830  0.82490  0.35780  1.0000 0.5970738195
C   C4        1.0  0.55170  0.32490  0.14220  1.0000 0.5970738195
C   C5        1.0  0.53760  0.23370  0.69520  1.0000 -0.0226363844
C   C6        1.0  0.46240  0.73370  0.80480  1.0000 -0.0226363844
C   C7        1.0  0.46240  0.76630  0.30480  1.0000 -0.0226363844
C   C8        1.0  0.53760  0.26630  0.19520  1.0000 -0.0226363844
C   C9        1.0  0.58570  0.21790  0.77670  1.0000 -0.1032876552
C   C10       1.0  0.41430  0.71790  0.72330  1.0000 -0.1032876552
C   C11       1.0  0.41430  0.78210  0.22330  1.0000 -0.1032876552
C   C12       1.0  0.58570  0.28210  0.27670  1.0000 -0.1032876552
C   C13       1.0  0.56780  0.26410  0.82610  1.0000 -0.1032876552
C   C14       1.0  0.43220  0.76410  0.67390  1.0000 -0.1032876552
C   C15       1.0  0.43220  0.73590  0.17390  1.0000 -0.1032876552
C   C16       1.0  0.56780  0.23590  0.32610  1.0000 -0.1032876552
C   C17       1.0  0.50270  0.32920  0.79560  1.0000 -0.025757561
C   C18       1.0  0.49730  0.82920  0.70440  1.0000 -0.0226363844
C   C19       1.0  0.49730  0.67080  0.20440  1.0000 -0.0226363844
C   C20       1.0  0.50270  0.17080  0.29560  1.0000 -0.0226363844
C   C21       1.0  0.48010  0.37610  0.84890  1.0000 0.5927042589
C   C22       1.0  0.51990  0.87610  0.65110  1.0000 0.5927042589
C   C23       1.0  0.51990  0.62390  0.15110  1.0000 0.5927042589
C   C24       1.0  0.48010  0.12390  0.34890  1.0000 0.5927042589
C   C25       1.0  0.45760  0.34850  0.71490  1.0000 -0.1032876552
C   C26       1.0  0.54240  0.84850  0.78510  1.0000 -0.1032876552
C   C27       1.0  0.54240  0.65150  0.28510  1.0000 -0.1032876552
C   C28       1.0  0.45760  0.15150  0.21490  1.0000 -0.1032876552
C   C29       1.0  0.47430  0.30000  0.66490  1.0000 -0.1032876552
C   C30       1.0  0.52570  0.80000  0.83510  1.0000 -0.1032876552
C   C31       1.0  0.52570  0.70000  0.33510  1.0000 -0.1032876552
C   C32       1.0  0.47430  0.20000  0.16490  1.0000 -0.1032876552
C   C33       1.0  0.13780  0.85830  0.02120  1.0000 0.5927042589
C   C34       1.0  0.86220  0.35830  0.47880  1.0000 0.5927042589
C   C35       1.0  0.86220  0.14170  0.97880  1.0000 0.5927042589
C   C36       1.0  0.13780  0.64170  0.52120  1.0000 0.5927042589
C   C37       1.0  0.15160  0.80150  0.96730  1.0000 -0.025757561
C   C38       1.0  0.84840  0.30150  0.53270  1.0000 -0.025757561
C   C39       1.0  0.84840  0.19850  0.03270  1.0000 -0.025757561
C   C40       1.0  0.15160  0.69850  0.46730  1.0000 -0.025757561
C   C41       1.0  0.11880  0.82780  0.88910  1.0000 -0.1032876552
C   C42       1.0  0.88120  0.32780  0.61090  1.0000 -0.1032876552
C   C43       1.0  0.88120  0.17220  0.11090  1.0000 -0.1032876552
C   C44       1.0  0.11880  0.67220  0.38910  1.0000 -0.1032876552
C   C45       1.0  0.13200  0.77580  0.83910  1.0000 -0.1032876552
C   C46       1.0  0.86800  0.27580  0.66090  1.0000 -0.1057967326
C   C47       1.0  0.86800  0.22420  0.16090  1.0000 -0.1057967326
C   C48       1.0  0.13200  0.72420  0.33910  1.0000 -0.1032876552
C   C49       1.0  0.17730  0.69660  0.86660  1.0000 -0.0226363844
C   C50       1.0  0.82270  0.19660  0.63340  1.0000 -0.0226363844
C   C51       1.0  0.82270  0.30340  0.13340  1.0000 -0.0226363844
C   C52       1.0  0.17730  0.80340  0.36660  1.0000 -0.0226363844
C   C53       1.0  0.19050  0.64000  0.81190  1.0000 0.5927042589
C   C54       1.0  0.80950  0.14000  0.68810  1.0000 0.5927042589
C   C55       1.0  0.80950  0.36000  0.18810  1.0000 0.5927042589
C   C56       1.0  0.19050  0.86000  0.31190  1.0000 0.5927042589
C   C57       1.0  0.21130  0.67050  0.94440  1.0000 -0.1032876552
C   C58       1.0  0.78870  0.17050  0.55560  1.0000 -0.1032876552
C   C59       1.0  0.78870  0.32950  0.05560  1.0000 -0.1032876552
C   C60       1.0  0.21130  0.82950  0.44440  1.0000 -0.1032876552
C   C61       1.0  0.19790  0.72290  0.99460  1.0000 -0.1032876552
C   C62       1.0  0.80210  0.22290  0.50540  1.0000 -0.1032876552
C   C63       1.0  0.80210  0.27710  0.00540  1.0000 -0.1032876552
C   C64       1.0  0.19790  0.77710  0.49460  1.0000 -0.1032876552
C   C65       1.0  0.21690  0.34080  0.81650  1.0000 0.5927042589
C   C66       1.0  0.78310  0.84080  0.68350  1.0000 0.5927042589
C   C67       1.0  0.78310  0.65920  0.18350  1.0000 0.5970738195
C   C68       1.0  0.21690  0.15920  0.31650  1.0000 0.5927042589
C   C69       1.0  0.19370  0.29290  0.86950  1.0000 -0.0226363844
C   C70       1.0  0.80630  0.79290  0.63050  1.0000 -0.0226363844
C   C71       1.0  0.80630  0.70710  0.13050  1.0000 -0.0226363844
C   C72       1.0  0.19370  0.20710  0.36950  1.0000 -0.0226363844
C   C73       1.0  0.25270  0.29410  0.95140  1.0000 -0.1057967326
C   C74       1.0  0.74730  0.79410  0.54860  1.0000 -0.1057967326
C   C75       1.0  0.74730  0.70590  0.04860  1.0000 -0.1057967326
C   C76       1.0  0.25270  0.20590  0.45140  1.0000 -0.1057967326
C   C77       1.0  0.22970  0.25190  0.99980  1.0000 -0.1032876552
C   C78       1.0  0.77030  0.75190  0.50020  1.0000 -0.1032876552
C   C79       1.0  0.77030  0.74810  0.00020  1.0000 -0.1032876552
C   C80       1.0  0.22970  0.24810  0.49980  1.0000 -0.1032876552
C   C81       1.0  0.14930  0.20780  0.96780  1.0000 -0.025757561
C   C82       1.0  0.85070  0.70780  0.53220  1.0000 -0.025757561
C   C83       1.0  0.85070  0.79220  0.03220  1.0000 -0.025757561
C   C84       1.0  0.14930  0.29220  0.46780  1.0000 -0.025757561
C   C85       1.0  0.12610  0.15890  0.01980  1.0000 0.5927042589
C   C86       1.0  0.87390  0.65890  0.48020  1.0000 0.5927042589
C   C87       1.0  0.87390  0.84110  0.98020  1.0000 0.5927042589
C   C88       1.0  0.12610  0.34110  0.51980  1.0000 0.5927042589
C   C89       1.0  0.09090  0.20630  0.88540  1.0000 -0.1057967326
C   C90       1.0  0.90910  0.70630  0.61460  1.0000 -0.1057967326
C   C91       1.0  0.90910  0.79370  0.11460  1.0000 -0.1057967326
C   C92       1.0  0.09090  0.29370  0.38540  1.0000 -0.1057967326
C   C93       1.0  0.11290  0.24860  0.83680  1.0000 -0.1032876552
C   C94       1.0  0.88710  0.74860  0.66320  1.0000 -0.1057967326
C   C95       1.0  0.88710  0.75140  0.16320  1.0000 -0.1032876552
C   C96       1.0  0.11290  0.25140  0.33680  1.0000 -0.1032876552
O   O1        1.0  0.25844  0.50353  0.71131  1.0000 -0.8632567442
O   O2        1.0  0.74156  0.00353  0.78869  1.0000 -0.8632567442
O   O3        1.0  0.74156  0.49647  0.28869  1.0000 -0.8632567442
O   O4        1.0  0.25844  0.99647  0.21131  1.0000 -0.8632567442
O   O5        1.0  0.40908  0.50181  0.95668  1.0000 -0.870685286
O   O6        1.0  0.59092  0.00181  0.54332  1.0000 -0.870685286
O   O7        1.0  0.59092  0.49819  0.04332  1.0000 -0.870685286
O   O8        1.0  0.40908  0.99819  0.45668  1.0000 -0.870685286
O   O9        1.0  0.07516  0.00130  0.12214  1.0000 -0.8632567442
O   O10       1.0  0.92484  0.50130  0.37786  1.0000 -0.8632567442
O   O11       1.0  0.92484  0.99870  0.87786  1.0000 -0.8632567442
O   O12       1.0  0.07516  0.49870  0.62214  1.0000 -0.8632567442
O   O13       1.0  0.15884  0.66965  0.74219  1.0000 -0.5394175268
O   O14       1.0  0.84116  0.16965  0.75781  1.0000 -0.5394175268
O   O15       1.0  0.84116  0.33035  0.25781  1.0000 -0.5394175268
O   O16       1.0  0.15884  0.83035  0.24219  1.0000 -0.5394175268
O   O17       1.0  0.16670  0.82774  0.08997  1.0000 -0.5335482276
O   O18       1.0  0.83330  0.32774  0.41003  1.0000 -0.5335482276
O   O19       1.0  0.83330  0.17226  0.91003  1.0000 -0.5335482276
O   O20       1.0  0.16670  0.67226  0.58997  1.0000 -0.5335482276
O   O21       1.0  0.49224  0.17647  0.56806  1.0000 -0.5517305172
O   O22       1.0  0.50776  0.67647  0.93194  1.0000 -0.5517305172
O   O23       1.0  0.50776  0.82353  0.43194  1.0000 -0.5517305172
O   O24       1.0  0.49224  0.32353  0.06806  1.0000 -0.5517305172
O   O25       1.0  0.43716  0.44616  0.82539  1.0000 -0.5710829513
O   O26       1.0  0.56284  0.94616  0.67461  1.0000 -0.5710829513
O   O27       1.0  0.56284  0.55384  0.17461  1.0000 -0.5710829513
O   O28       1.0  0.43716  0.05384  0.32539  1.0000 -0.5710829513
O   O29       1.0  0.22821  0.56771  0.83653  1.0000 -0.5710829513
O   O30       1.0  0.77179  0.06771  0.66347  1.0000 -0.5710829513
O   O31       1.0  0.77179  0.43229  0.16347  1.0000 -0.5710829513
O   O32       1.0  0.22821  0.93229  0.33653  1.0000 -0.5710829513
O   O33       1.0  0.05444  0.12030  0.98914  1.0000 -0.5517305172
O   O34       1.0  0.94556  0.62030  0.51086  1.0000 -0.5517305172
O   O35       1.0  0.94556  0.87970  0.01086  1.0000 -0.5517305172
O   O36       1.0  0.05444  0.37970  0.48914  1.0000 -0.5517305172
O   O37       1.0  0.50772  0.34126  0.91614  1.0000 -0.5394175268
O   O38       1.0  0.49228  0.84126  0.58386  1.0000 -0.5394175268
O   O39       1.0  0.49228  0.65874  0.08386  1.0000 -0.5394175268
O   O40       1.0  0.50772  0.15874  0.41614  1.0000 -0.5394175268
O   O41       1.0  0.10056  0.93072  0.99637  1.0000 -0.5710829513
O   O42       1.0  0.89944  0.43072  0.50363  1.0000 -0.5710829513
O   O43       1.0  0.89944  0.06928  0.00363  1.0000 -0.5710829513
O   O44       1.0  0.10056  0.56928  0.49637  1.0000 -0.5710829513
O   O45       1.0  0.61987  0.12935  0.67295  1.0000 -0.5592112757
O   O46       1.0  0.38013  0.62935  0.82705  1.0000 -0.5592112757
O   O47       1.0  0.38013  0.87065  0.32705  1.0000 -0.5592112757
O   O48       1.0  0.61987  0.37065  0.17295  1.0000 -0.5592112757
O   O49       1.0  0.28896  0.37930  0.84639  1.0000 -0.5517305172
O   O50       1.0  0.71104  0.87930  0.65361  1.0000 -0.5517305172
O   O51       1.0  0.71104  0.62070  0.15361  1.0000 -0.5517305172
O   O52       1.0  0.28896  0.12070  0.34639  1.0000 -0.5517305172
O   O53       1.0  0.18490  0.16150  0.09430  1.0000 -0.5517305172
O   O54       1.0  0.81510  0.66150  0.40570  1.0000 -0.5517305172
O   O55       1.0  0.81510  0.83850  0.90570  1.0000 -0.5517305172
O   O56       1.0  0.18490  0.33850  0.59430  1.0000 -0.5517305172
O   O57       1.0  0.15725  0.33845  0.74235  1.0000 -0.5517305172
O   O58       1.0  0.84275  0.83845  0.75765  1.0000 -0.5517305172
O   O59       1.0  0.84275  0.66155  0.25765  1.0000 -0.5517305172
O   O60       1.0  0.15725  0.16155  0.24235  1.0000 -0.5517305172
