# DDEC6 charges by PACMAN v1.1 (https://github.com/mtap-research/PACMAN-charge/)
data_2013[Zn][lon]3[ASR]1
_chemical_formula_sum              "Zn2 H24 C18 N8 O6"
_cell_length_a       9.3427
_cell_length_b       9.1269
_cell_length_c       9.604
_cell_angle_alpha    90
_cell_angle_beta     114.455
_cell_angle_gamma    90

_symmetry_space_group_name_H-M    "P 1"
_symmetry_Int_Tables_number       1

loop_
  _symmetry_equiv_pos_as_xyz
  'x, y, z'

loop_
  _atom_site_type_symbol
  _atom_site_label
  _atom_site_symmetry_multiplicity
  _atom_site_fract_x
  _atom_site_fract_y
  _atom_site_fract_z
  _atom_site_occupancy
  _atom_site_charge
Zn  Zn1       1.0  0.40359  0.56466  0.28456  1.0000 0.7142646319
Zn  Zn2       1.0  0.59641  0.06466  0.71544  1.0000 0.7142646319
H   H1        1.0  0.56640  0.27690  0.45440  1.0000 0.0976017943
H   H2        1.0  0.43360  0.77690  0.54560  1.0000 0.0976017943
H   H3        1.0  0.35730  0.43120  0.84280  1.0000 0.1228004402
H   H4        1.0  0.64270  0.93120  0.15720  1.0000 0.1228004402
H   H5        1.0  0.38770  0.26240  0.84530  1.0000 0.1304686672
H   H6        1.0  0.61230  0.76240  0.15470  1.0000 0.1304686672
H   H7        1.0  0.62060  0.57440  0.91240  1.0000 0.2773383564
H   H8        1.0  0.37940  0.07440  0.08760  1.0000 0.2773383564
H   H9        1.0  0.33830  0.55940  0.59210  1.0000 0.1304686672
H   H10       1.0  0.66170  0.05940  0.40790  1.0000 0.1304686672
H   H11       1.0  0.07890  0.67880  0.25220  1.0000 0.0976017943
H   H12       1.0  0.92110  0.17880  0.74780  1.0000 0.0976017943
H   H13       1.0  0.11180  0.76720  0.12870  1.0000 0.0894474393
H   H14       1.0  0.88820  0.26720  0.87130  1.0000 0.0894474393
H   H15       1.0  0.65120  0.28970  0.00000  1.0000 0.0976017943
H   H16       1.0  0.34880  0.78970  0.00000  1.0000 0.0976017943
H   H17       1.0  0.89240  0.66120  0.93390  1.0000 0.1454258418
H   H18       1.0  0.10760  0.16120  0.06610  1.0000 0.1454258418
H   H19       1.0  0.84150  0.74230  0.05000  1.0000 0.1446689821
H   H20       1.0  0.15850  0.24230  0.95000  1.0000 0.1446689821
H   H21       1.0  0.16100  0.55000  0.04600  1.0000 0.2400196499
H   H22       1.0  0.83900  0.05000  0.95400  1.0000 0.2400196499
H   H23       1.0  0.13300  0.47600  0.15900  1.0000 0.2475579089
H   H24       1.0  0.86700  0.97600  0.84100  1.0000 0.2475579089
C   C1        1.0  0.52150  0.32320  0.51290  1.0000 0.156416536
C   C2        1.0  0.47850  0.82320  0.48710  1.0000 0.156416536
C   C3        1.0  0.43210  0.35780  0.84220  1.0000 -0.298407852
C   C4        1.0  0.56790  0.85780  0.15780  1.0000 -0.298407852
C   C5        1.0  0.39650  0.47830  0.58770  1.0000 -0.1283458167
C   C6        1.0  0.60350  0.97830  0.41230  1.0000 -0.1283458167
C   C7        1.0  0.45120  0.37060  0.69640  1.0000 0.1801741651
C   C8        1.0  0.54880  0.87060  0.30360  1.0000 0.1801741651
C   C9        1.0  0.07190  0.67510  0.14870  1.0000 -0.001680471
C   C10       1.0  0.92810  0.17510  0.85130  1.0000 -0.001680471
C   C11       1.0  0.53840  0.38460  0.12290  1.0000 0.5623613304
C   C12       1.0  0.46160  0.88460  0.87710  1.0000 0.5623613304
C   C13       1.0  0.58490  0.37630  0.98760  1.0000 0.0083546244
C   C14       1.0  0.41510  0.87630  0.01240  1.0000 0.0083546244
C   C15       1.0  0.90000  0.65920  0.03770  1.0000 -0.3696729535
C   C16       1.0  0.10000  0.15920  0.96230  1.0000 -0.3696729535
C   C17       1.0  0.82550  0.51980  0.06070  1.0000 0.5222952373
C   C18       1.0  0.17450  0.01980  0.93930  1.0000 0.5222952373
N   N1        1.0  0.17350  0.55280  0.13720  1.0000 -0.506418913
N   N2        1.0  0.82650  0.05280  0.86280  1.0000 -0.506418913
N   N3        1.0  0.67030  0.50590  0.97530  1.0000 -0.3696729535
N   N4        1.0  0.32970  0.00590  0.02470  1.0000 -0.3696729535
N   N5        1.0  0.44100  0.44750  0.47090  1.0000 -0.298407852
N   N6        1.0  0.55900  0.94750  0.52910  1.0000 -0.298407852
N   N7        1.0  0.53230  0.27050  0.64670  1.0000 -0.3592102223
N   N8        1.0  0.46770  0.77050  0.35330  1.0000 -0.3592102223
O   O1        1.0  0.52440  0.51356  0.16710  1.0000 -0.5445028835
O   O2        1.0  0.47560  0.01356  0.83290  1.0000 -0.5445028835
O   O3        1.0  0.50940  0.26910  0.17440  1.0000 -0.5713740283
O   O4        1.0  0.49060  0.76910  0.82560  1.0000 -0.5713740283
O   O5        1.0  0.90290  0.42270  0.15060  1.0000 -0.5171739155
O   O6        1.0  0.09710  0.92270  0.84940  1.0000 -0.5171739155
