# DDEC6 charges by PACMAN v1.1 (https://github.com/mtap-research/PACMAN-charge/)
data_2012[Zn][dia]3[ASR]2
_chemical_formula_sum              "Zn8 H88 C132 N24 O28"
_cell_length_a       6.1802
_cell_length_b       29.4218
_cell_length_c       23.3127
_cell_angle_alpha    90
_cell_angle_beta     95.663
_cell_angle_gamma    90

_symmetry_space_group_name_H-M    "P 1"
_symmetry_Int_Tables_number       1

loop_
  _symmetry_equiv_pos_as_xyz
  'x, y, z'

loop_
  _atom_site_type_symbol
  _atom_site_label
  _atom_site_symmetry_multiplicity
  _atom_site_fract_x
  _atom_site_fract_y
  _atom_site_fract_z
  _atom_site_occupancy
  _atom_site_charge
Zn  Zn1       1.0  0.52453  0.92375  0.73077  1.0000 0.7587545822
Zn  Zn2       1.0  0.47547  0.42375  0.76923  1.0000 0.7587545822
Zn  Zn3       1.0  0.47547  0.07625  0.26923  1.0000 0.7587545822
Zn  Zn4       1.0  0.52453  0.57625  0.23077  1.0000 0.7587545822
Zn  Zn5       1.0  0.47972  0.53910  0.75274  1.0000 0.8521016548
Zn  Zn6       1.0  0.52028  0.03910  0.74726  1.0000 0.8521016548
Zn  Zn7       1.0  0.52028  0.46090  0.24726  1.0000 0.8521016548
Zn  Zn8       1.0  0.47972  0.96090  0.25274  1.0000 0.8521016548
H   H1        1.0  0.47040  0.75330  0.71010  1.0000 0.0992925724
H   H2        1.0  0.52960  0.25330  0.78990  1.0000 0.0992925724
H   H3        1.0  0.52960  0.24670  0.28990  1.0000 0.0992925724
H   H4        1.0  0.47040  0.74670  0.21010  1.0000 0.0992925724
H   H5        1.0  0.80800  0.76000  0.78270  1.0000 0.1177962979
H   H6        1.0  0.19200  0.26000  0.71730  1.0000 0.1177962979
H   H7        1.0  0.19200  0.24000  0.21730  1.0000 0.1177962979
H   H8        1.0  0.80800  0.74000  0.28270  1.0000 0.1177962979
H   H9        1.0  0.99650  0.82740  0.77020  1.0000 0.1280235062
H   H10       1.0  0.00350  0.32740  0.72980  1.0000 0.1280235062
H   H11       1.0  0.00350  0.17260  0.22980  1.0000 0.1280235062
H   H12       1.0  0.99650  0.67260  0.27020  1.0000 0.1280235062
H   H13       1.0  0.12220  0.63530  0.71410  1.0000 0.1377206852
H   H14       1.0  0.87780  0.13530  0.78590  1.0000 0.1377206852
H   H15       1.0  0.87780  0.36470  0.28590  1.0000 0.1377206852
H   H16       1.0  0.12220  0.86470  0.21410  1.0000 0.1377206852
H   H17       1.0  0.91840  0.56940  0.71500  1.0000 0.1177962979
H   H18       1.0  0.08160  0.06940  0.78500  1.0000 0.1177962979
H   H19       1.0  0.08160  0.43060  0.28500  1.0000 0.1177962979
H   H20       1.0  0.91840  0.93060  0.21500  1.0000 0.1177962979
H   H21       1.0  0.49940  0.62920  0.80710  1.0000 0.1127365546
H   H22       1.0  0.50060  0.12920  0.69290  1.0000 0.1127365546
H   H23       1.0  0.50060  0.37080  0.19290  1.0000 0.1127365546
H   H24       1.0  0.49940  0.87080  0.30710  1.0000 0.1127365546
H   H25       1.0  0.68040  0.69740  0.80590  1.0000 0.1280235062
H   H26       1.0  0.31960  0.19740  0.69410  1.0000 0.1280235062
H   H27       1.0  0.31960  0.30260  0.19410  1.0000 0.1280235062
H   H28       1.0  0.68040  0.80260  0.30590  1.0000 0.1280235062
H   H29       1.0  0.77670  0.97710  0.37180  1.0000 0.0925326177
H   H30       1.0  0.22330  0.47710  0.12820  1.0000 0.0925326177
H   H31       1.0  0.22330  0.02290  0.62820  1.0000 0.0925326177
H   H32       1.0  0.77670  0.52290  0.87180  1.0000 0.0925326177
H   H33       1.0  0.21490  0.90160  0.51120  1.0000 0.1177962979
H   H34       1.0  0.78510  0.40160  0.98880  1.0000 0.1177962979
H   H35       1.0  0.78510  0.09840  0.48880  1.0000 0.1177962979
H   H36       1.0  0.21490  0.59840  0.01120  1.0000 0.1177962979
H   H37       1.0  0.34600  0.91710  0.42280  1.0000 0.1177962979
H   H38       1.0  0.65400  0.41710  0.07720  1.0000 0.1177962979
H   H39       1.0  0.65400  0.08290  0.57720  1.0000 0.1177962979
H   H40       1.0  0.34600  0.58290  0.92280  1.0000 0.1177962979
H   H41       1.0  0.55990  0.96490  0.52860  1.0000 0.1280235062
H   H42       1.0  0.44010  0.46490  0.97140  1.0000 0.1280235062
H   H43       1.0  0.44010  0.03510  0.47140  1.0000 0.1280235062
H   H44       1.0  0.55990  0.53510  0.02860  1.0000 0.1280235062
H   H45       1.0  0.42690  0.96030  0.61650  1.0000 0.0992925724
H   H46       1.0  0.57310  0.46030  0.88350  1.0000 0.0992925724
H   H47       1.0  0.57310  0.03970  0.38350  1.0000 0.0992925724
H   H48       1.0  0.42690  0.53970  0.11650  1.0000 0.0992925724
H   H49       1.0  0.92880  0.88810  0.67840  1.0000 0.1127365546
H   H50       1.0  0.07120  0.38810  0.82160  1.0000 0.1127365546
H   H51       1.0  0.07120  0.11190  0.32160  1.0000 0.1127365546
H   H52       1.0  0.92880  0.61190  0.17840  1.0000 0.1127365546
H   H53       1.0  0.08310  0.89280  0.59220  1.0000 0.1280235062
H   H54       1.0  0.91690  0.39280  0.90780  1.0000 0.1280235062
H   H55       1.0  0.91690  0.10720  0.40780  1.0000 0.1280235062
H   H56       1.0  0.08310  0.60720  0.09220  1.0000 0.1280235062
H   H57       1.0  0.98380  0.93920  0.10220  1.0000 0.1127365546
H   H58       1.0  0.01620  0.43920  0.39780  1.0000 0.1127365546
H   H59       1.0  0.01620  0.06080  0.89780  1.0000 0.1127365546
H   H60       1.0  0.98380  0.56080  0.60220  1.0000 0.1127365546
H   H61       1.0  0.37210  0.94750  0.94530  1.0000 0.1177962979
H   H62       1.0  0.62790  0.44750  0.55470  1.0000 0.1177962979
H   H63       1.0  0.62790  0.05250  0.05470  1.0000 0.1177962979
H   H64       1.0  0.37210  0.55250  0.44530  1.0000 0.1177962979
H   H65       1.0  0.54750  0.95800  0.03660  1.0000 0.1127365546
H   H66       1.0  0.45250  0.45800  0.46340  1.0000 0.1127365546
H   H67       1.0  0.45250  0.04200  0.96340  1.0000 0.1127365546
H   H68       1.0  0.54750  0.54200  0.53660  1.0000 0.1127365546
H   H69       1.0  0.70390  0.89510  0.93810  1.0000 0.1377206852
H   H70       1.0  0.29610  0.39510  0.56190  1.0000 0.1377206852
H   H71       1.0  0.29610  0.10490  0.06190  1.0000 0.1377206852
H   H72       1.0  0.70390  0.60490  0.43810  1.0000 0.1377206852
H   H73       1.0  0.51810  0.89070  0.84800  1.0000 0.1127365546
H   H74       1.0  0.48190  0.39070  0.65200  1.0000 0.1127365546
H   H75       1.0  0.48190  0.10930  0.15200  1.0000 0.1127365546
H   H76       1.0  0.51810  0.60930  0.34800  1.0000 0.1127365546
H   H77       1.0  0.97120  0.95930  0.77960  1.0000 0.1177962979
H   H78       1.0  0.02880  0.45930  0.72040  1.0000 0.1177962979
H   H79       1.0  0.02880  0.04070  0.22040  1.0000 0.1177962979
H   H80       1.0  0.97120  0.54070  0.27960  1.0000 0.1177962979
H   H81       1.0  0.16980  0.96600  0.86750  1.0000 0.1377206852
H   H82       1.0  0.83020  0.46600  0.63250  1.0000 0.1377206852
H   H83       1.0  0.83020  0.03400  0.13250  1.0000 0.1377206852
H   H84       1.0  0.16980  0.53400  0.36750  1.0000 0.1377206852
H   H85       1.0  0.27700  0.97800  0.71600  1.0000 0.3449824761
H   H86       1.0  0.72300  0.47800  0.78400  1.0000 0.3449824761
H   H87       1.0  0.72300  0.02200  0.28400  1.0000 0.3449824761
H   H88       1.0  0.27700  0.52200  0.21600  1.0000 0.3449824761
C   C1        1.0  0.39360  0.83890  0.73460  1.0000 0.5447395752
C   C2        1.0  0.60640  0.33890  0.76540  1.0000 0.5447395752
C   C3        1.0  0.60640  0.16110  0.26540  1.0000 0.5447395752
C   C4        1.0  0.39360  0.66110  0.23460  1.0000 0.5447395752
C   C5        1.0  0.25740  0.79760  0.74000  1.0000 -0.0793159873
C   C6        1.0  0.74260  0.29760  0.76000  1.0000 -0.0793159873
C   C7        1.0  0.74260  0.20240  0.26000  1.0000 -0.0793159873
C   C8        1.0  0.25740  0.70240  0.24000  1.0000 -0.0793159873
C   C9        1.0  0.33290  0.75490  0.72500  1.0000 0.0635545562
C   C10       1.0  0.66710  0.25490  0.77500  1.0000 0.0635545562
C   C11       1.0  0.66710  0.24510  0.27500  1.0000 0.0635545562
C   C12       1.0  0.33290  0.74510  0.22500  1.0000 0.0635545562
C   C13       1.0  0.03410  0.71930  0.75210  1.0000 0.1797543961
C   C14       1.0  0.96590  0.21930  0.74790  1.0000 0.1797543961
C   C15       1.0  0.96590  0.28070  0.24790  1.0000 0.1797543961
C   C16       1.0  0.03410  0.78070  0.25210  1.0000 0.1797543961
C   C17       1.0  0.94510  0.75950  0.76750  1.0000 -0.1611680676
C   C18       1.0  0.05490  0.25950  0.73250  1.0000 -0.1611680676
C   C19       1.0  0.05490  0.24050  0.23250  1.0000 -0.1611680676
C   C20       1.0  0.94510  0.74050  0.26750  1.0000 -0.1611680676
C   C21       1.0  0.05730  0.79910  0.76070  1.0000 -0.0445004207
C   C22       1.0  0.94270  0.29910  0.73930  1.0000 -0.0445004207
C   C23       1.0  0.94270  0.20090  0.23930  1.0000 -0.0445004207
C   C24       1.0  0.05730  0.70090  0.26070  1.0000 -0.0445004207
C   C25       1.0  0.92010  0.67520  0.75720  1.0000 0.0992925724
C   C26       1.0  0.07990  0.17520  0.74280  1.0000 0.0992925724
C   C27       1.0  0.07990  0.32480  0.24280  1.0000 0.0992925724
C   C28       1.0  0.92010  0.82480  0.25720  1.0000 0.0992925724
C   C29       1.0  0.99080  0.63520  0.73200  1.0000 -0.165825649
C   C30       1.0  0.00920  0.13520  0.76800  1.0000 -0.165825649
C   C31       1.0  0.00920  0.36480  0.26800  1.0000 -0.165825649
C   C32       1.0  0.99080  0.86480  0.23200  1.0000 -0.165825649
C   C33       1.0  0.86990  0.59585  0.73330  1.0000 0.0992925724
C   C34       1.0  0.13010  0.09585  0.76670  1.0000 0.0992925724
C   C35       1.0  0.13010  0.40415  0.26670  1.0000 0.0992925724
C   C36       1.0  0.86990  0.90415  0.23330  1.0000 0.0992925724
C   C37       1.0  0.62450  0.63100  0.78660  1.0000 0.0925326177
C   C38       1.0  0.37550  0.13100  0.71340  1.0000 0.0925326177
C   C39       1.0  0.37550  0.36900  0.21340  1.0000 0.0925326177
C   C40       1.0  0.62450  0.86900  0.28660  1.0000 0.0925326177
C   C41       1.0  0.73210  0.67180  0.78650  1.0000 -0.2044740458
C   C42       1.0  0.26790  0.17180  0.71350  1.0000 -0.2044740458
C   C43       1.0  0.26790  0.32820  0.21350  1.0000 -0.2044740458
C   C44       1.0  0.73210  0.82820  0.28650  1.0000 -0.2044740458
C   C45       1.0  0.15630  0.96350  0.33190  1.0000 0.5601544092
C   C46       1.0  0.84370  0.46350  0.16810  1.0000 0.5601544092
C   C47       1.0  0.84370  0.03650  0.66810  1.0000 0.5601544092
C   C48       1.0  0.15630  0.53650  0.83190  1.0000 0.5601544092
C   C49       1.0  0.07690  0.95071  0.38870  1.0000 -0.0793159873
C   C50       1.0  0.92310  0.45071  0.11130  1.0000 -0.0793159873
C   C51       1.0  0.92310  0.04929  0.61130  1.0000 -0.0793159873
C   C52       1.0  0.07690  0.54929  0.88870  1.0000 -0.0793159873
C   C53       1.0  0.87050  0.96300  0.40130  1.0000 0.0415398638
C   C54       1.0  0.12950  0.46300  0.09870  1.0000 0.0415398638
C   C55       1.0  0.12950  0.03700  0.59870  1.0000 0.0415398638
C   C56       1.0  0.87050  0.53700  0.90130  1.0000 0.0415398638
C   C57       1.0  0.92690  0.93470  0.49300  1.0000 0.1889522384
C   C58       1.0  0.07310  0.43470  0.00700  1.0000 0.1889522384
C   C59       1.0  0.07310  0.06530  0.50700  1.0000 0.1889522384
C   C60       1.0  0.92690  0.56530  0.99300  1.0000 0.1889522384
C   C61       1.0  0.12950  0.91850  0.48260  1.0000 -0.1804276955
C   C62       1.0  0.87050  0.41850  0.01740  1.0000 -0.1804276955
C   C63       1.0  0.87050  0.08150  0.51740  1.0000 -0.1804276955
C   C64       1.0  0.12950  0.58150  0.98260  1.0000 -0.1804276955
C   C65       1.0  0.20550  0.92720  0.43030  1.0000 -0.0704727964
C   C66       1.0  0.79450  0.42720  0.06970  1.0000 -0.0704727964
C   C67       1.0  0.79450  0.07280  0.56970  1.0000 -0.0704727964
C   C68       1.0  0.20550  0.57280  0.93030  1.0000 -0.0704727964
C   C69       1.0  0.83900  0.92990  0.55000  1.0000 0.0992925724
C   C70       1.0  0.16100  0.42990  0.95000  1.0000 0.0992925724
C   C71       1.0  0.16100  0.07010  0.45000  1.0000 0.0992925724
C   C72       1.0  0.83900  0.57010  0.05000  1.0000 0.0992925724
C   C73       1.0  0.64120  0.94920  0.55920  1.0000 -0.1804276955
C   C74       1.0  0.35880  0.44920  0.94080  1.0000 -0.1804276955
C   C75       1.0  0.35880  0.05080  0.44080  1.0000 -0.1804276955
C   C76       1.0  0.64120  0.55080  0.05920  1.0000 -0.1804276955
C   C77       1.0  0.56140  0.94600  0.61140  1.0000 0.0713110874
C   C78       1.0  0.43860  0.44600  0.88860  1.0000 0.0713110874
C   C79       1.0  0.43860  0.05400  0.38860  1.0000 0.0713110874
C   C80       1.0  0.56140  0.55400  0.11140  1.0000 0.0713110874
C   C81       1.0  0.85370  0.90440  0.64740  1.0000 0.1127365546
C   C82       1.0  0.14630  0.40440  0.85260  1.0000 0.1127365546
C   C83       1.0  0.14630  0.09560  0.35260  1.0000 0.1127365546
C   C84       1.0  0.85370  0.59560  0.14740  1.0000 0.1127365546
C   C85       1.0  0.94670  0.90680  0.59590  1.0000 -0.1928832632
C   C86       1.0  0.05330  0.40680  0.90410  1.0000 -0.1928832632
C   C87       1.0  0.05330  0.09320  0.40410  1.0000 -0.1928832632
C   C88       1.0  0.94670  0.59320  0.09590  1.0000 -0.1928832632
C   C89       1.0  0.39920  0.95780  0.13860  1.0000 0.5533691357
C   C90       1.0  0.60080  0.45780  0.36140  1.0000 0.5533691357
C   C91       1.0  0.60080  0.04220  0.86140  1.0000 0.5533691357
C   C92       1.0  0.39920  0.54220  0.63860  1.0000 0.5533691357
C   C93       1.0  0.28200  0.95070  0.07950  1.0000 -0.0615678308
C   C94       1.0  0.71800  0.45070  0.42050  1.0000 -0.0615678308
C   C95       1.0  0.71800  0.04930  0.92050  1.0000 -0.0615678308
C   C96       1.0  0.28200  0.54930  0.57950  1.0000 -0.0615678308
C   C97       1.0  0.06570  0.94100  0.06990  1.0000 0.0545658088
C   C98       1.0  0.93430  0.44100  0.43010  1.0000 0.0545658088
C   C99       1.0  0.93430  0.05900  0.93010  1.0000 0.0545658088
C   C100      1.0  0.06570  0.55900  0.56990  1.0000 0.0545658088
C   C101      1.0  0.07720  0.93800  0.97150  1.0000 0.1797543961
C   C102      1.0  0.92280  0.43800  0.52850  1.0000 0.1797543961
C   C103      1.0  0.92280  0.06200  0.02850  1.0000 0.1797543961
C   C104      1.0  0.07720  0.56200  0.47150  1.0000 0.1797543961
C   C105      1.0  0.29230  0.94610  0.97800  1.0000 -0.1611680676
C   C106      1.0  0.70770  0.44610  0.52200  1.0000 -0.1611680676
C   C107      1.0  0.70770  0.05390  0.02200  1.0000 -0.1611680676
C   C108      1.0  0.29230  0.55390  0.47800  1.0000 -0.1611680676
C   C109      1.0  0.39540  0.95240  0.03200  1.0000 -0.0704727964
C   C110      1.0  0.60460  0.45240  0.46800  1.0000 -0.0704727964
C   C111      1.0  0.60460  0.04760  0.96800  1.0000 -0.0704727964
C   C112      1.0  0.39540  0.54760  0.53200  1.0000 -0.0704727964
C   C113      1.0  0.95900  0.93240  0.91330  1.0000 0.0992925724
C   C114      1.0  0.04100  0.43240  0.58670  1.0000 0.0992925724
C   C115      1.0  0.04100  0.06760  0.08670  1.0000 0.0992925724
C   C116      1.0  0.95900  0.56760  0.41330  1.0000 0.0992925724
C   C117      1.0  0.76170  0.90900  0.90610  1.0000 -0.1804276955
C   C118      1.0  0.23830  0.40900  0.59390  1.0000 -0.1804276955
C   C119      1.0  0.23830  0.09100  0.09390  1.0000 -0.1804276955
C   C120      1.0  0.76170  0.59100  0.40610  1.0000 -0.1804276955
C   C121      1.0  0.65320  0.90630  0.85220  1.0000 0.0797256986
C   C122      1.0  0.34680  0.40630  0.64780  1.0000 0.0797256986
C   C123      1.0  0.34680  0.09370  0.14780  1.0000 0.0797256986
C   C124      1.0  0.65320  0.59370  0.35220  1.0000 0.0797256986
C   C125      1.0  0.91600  0.94620  0.81240  1.0000 0.0925326177
C   C126      1.0  0.08400  0.44620  0.68760  1.0000 0.0925326177
C   C127      1.0  0.08400  0.05380  0.18760  1.0000 0.0925326177
C   C128      1.0  0.91600  0.55380  0.31240  1.0000 0.0925326177
C   C129      1.0  0.03450  0.95040  0.86470  1.0000 -0.1804276955
C   C130      1.0  0.96550  0.45040  0.63530  1.0000 -0.1804276955
C   C131      1.0  0.96550  0.04960  0.13530  1.0000 -0.1804276955
C   C132      1.0  0.03450  0.54960  0.36470  1.0000 -0.1804276955
N   N1        1.0  0.22540  0.71690  0.73010  1.0000 -0.291947632
N   N2        1.0  0.77460  0.21690  0.76990  1.0000 -0.291947632
N   N3        1.0  0.77460  0.28310  0.26990  1.0000 -0.291947632
N   N4        1.0  0.22540  0.78310  0.23010  1.0000 -0.291947632
N   N5        1.0  0.68530  0.59368  0.75960  1.0000 -0.253269284
N   N6        1.0  0.31470  0.09368  0.74040  1.0000 -0.253269284
N   N7        1.0  0.31470  0.40632  0.24040  1.0000 -0.253269284
N   N8        1.0  0.68530  0.90632  0.25960  1.0000 -0.253269284
N   N9        1.0  0.79550  0.95606  0.45230  1.0000 -0.2831583609
N   N10       1.0  0.20450  0.45606  0.04770  1.0000 -0.2831583609
N   N11       1.0  0.20450  0.04394  0.54770  1.0000 -0.2831583609
N   N12       1.0  0.79550  0.54394  0.95230  1.0000 -0.2831583609
N   N13       1.0  0.66470  0.92358  0.65580  1.0000 -0.221033751
N   N14       1.0  0.33530  0.42358  0.84420  1.0000 -0.221033751
N   N15       1.0  0.33530  0.07642  0.34420  1.0000 -0.221033751
N   N16       1.0  0.66470  0.57642  0.15580  1.0000 -0.221033751
N   N17       1.0  0.96250  0.93390  0.01760  1.0000 -0.2731231441
N   N18       1.0  0.03750  0.43390  0.48240  1.0000 -0.2731231441
N   N19       1.0  0.03750  0.06610  0.98240  1.0000 -0.2731231441
N   N20       1.0  0.96250  0.56610  0.51760  1.0000 -0.2731231441
N   N21       1.0  0.72550  0.92424  0.80520  1.0000 -0.2322283526
N   N22       1.0  0.27450  0.42424  0.69480  1.0000 -0.2322283526
N   N23       1.0  0.27450  0.07576  0.19480  1.0000 -0.2322283526
N   N24       1.0  0.72550  0.57576  0.30520  1.0000 -0.2322283526
O   O1        1.0  0.30060  0.87720  0.73960  1.0000 -0.5576574867
O   O2        1.0  0.69940  0.37720  0.76040  1.0000 -0.5576574867
O   O3        1.0  0.69940  0.12280  0.26040  1.0000 -0.5576574867
O   O4        1.0  0.30060  0.62280  0.23960  1.0000 -0.5576574867
O   O5        1.0  0.58770  0.83496  0.72600  1.0000 -0.5576574867
O   O6        1.0  0.41230  0.33496  0.77400  1.0000 -0.5576574867
O   O7        1.0  0.41230  0.16504  0.27400  1.0000 -0.5576574867
O   O8        1.0  0.58770  0.66504  0.22600  1.0000 -0.5576574867
O   O9        1.0  0.05500  0.99212  0.30111  1.0000 -0.5476066162
O   O10       1.0  0.94500  0.49212  0.19889  1.0000 -0.5476066162
O   O11       1.0  0.94500  0.00788  0.69889  1.0000 -0.5476066162
O   O12       1.0  0.05500  0.50788  0.80111  1.0000 -0.5476066162
O   O13       1.0  0.32840  0.94333  0.32013  1.0000 -0.5760385086
O   O14       1.0  0.67160  0.44333  0.17987  1.0000 -0.5760385086
O   O15       1.0  0.67160  0.05667  0.67987  1.0000 -0.5760385086
O   O16       1.0  0.32840  0.55667  0.82013  1.0000 -0.5760385086
O   O17       1.0  0.28640  0.95188  0.18145  1.0000 -0.5687890341
O   O18       1.0  0.71360  0.45188  0.31855  1.0000 -0.5687890341
O   O19       1.0  0.71360  0.04812  0.81855  1.0000 -0.5687890341
O   O20       1.0  0.28640  0.54812  0.68145  1.0000 -0.5687890341
O   O21       1.0  0.59280  0.96815  0.14310  1.0000 -0.5476066162
O   O22       1.0  0.40720  0.46815  0.35690  1.0000 -0.5476066162
O   O23       1.0  0.40720  0.03185  0.85690  1.0000 -0.5476066162
O   O24       1.0  0.59280  0.53185  0.64310  1.0000 -0.5476066162
O   O25       1.0  0.38290  0.98200  0.72850  1.0000 -0.7320743938
O   O26       1.0  0.61710  0.48200  0.77150  1.0000 -0.7320743938
O   O27       1.0  0.61710  0.01800  0.27150  1.0000 -0.7320743938
O   O28       1.0  0.38290  0.51800  0.22850  1.0000 -0.7320743938
