# DDEC6 charges by PACMAN v1.1 (https://github.com/mtap-research/PACMAN-charge/)
data_2012[Ni][nan]3[ASR]1
_chemical_formula_sum              "Ni4 H52 C84 N28 O16"
_cell_length_a       15.2392
_cell_length_b       15.2392
_cell_length_c       16.695
_cell_angle_alpha    65.5807
_cell_angle_beta     114.419
_cell_angle_gamma    137.107

_symmetry_space_group_name_H-M    "P 1"
_symmetry_Int_Tables_number       1

loop_
  _symmetry_equiv_pos_as_xyz
  'x, y, z'

loop_
  _atom_site_type_symbol
  _atom_site_label
  _atom_site_symmetry_multiplicity
  _atom_site_fract_x
  _atom_site_fract_y
  _atom_site_fract_z
  _atom_site_occupancy
  _atom_site_charge
Ni  Ni1       1.0  0.50000  0.00000  0.00000  1.0000 0.6820166376
Ni  Ni2       1.0  0.00000  0.50000  0.50000  1.0000 0.6820166376
Ni  Ni3       1.0  0.00000  0.50000  0.00000  1.0000 0.8121367958
Ni  Ni4       1.0  0.50000  0.00000  0.50000  1.0000 0.8121367958
H   H1        1.0  0.12390  0.79410  0.63000  1.0000 0.1390855407
H   H2        1.0  0.79410  0.12390  0.87000  1.0000 0.1390855407
H   H3        1.0  0.87610  0.20590  0.37000  1.0000 0.1390855407
H   H4        1.0  0.20590  0.87610  0.13000  1.0000 0.1390855407
H   H5        1.0  0.52790  0.95710  0.82010  1.0000 0.1306925085
H   H6        1.0  0.95710  0.52790  0.67990  1.0000 0.1306925085
H   H7        1.0  0.47210  0.04290  0.17990  1.0000 0.1306925085
H   H8        1.0  0.04290  0.47210  0.32010  1.0000 0.1306925085
H   H9        1.0  0.24150  0.93710  0.89470  1.0000 0.1118917842
H   H10       1.0  0.93710  0.24150  0.60530  1.0000 0.1118917842
H   H11       1.0  0.75850  0.06290  0.10530  1.0000 0.1118917842
H   H12       1.0  0.06290  0.75850  0.39470  1.0000 0.1118917842
H   H13       1.0  0.61380  0.28580  0.88240  1.0000 0.1118917842
H   H14       1.0  0.28580  0.61380  0.61760  1.0000 0.1118917842
H   H15       1.0  0.38620  0.71420  0.11760  1.0000 0.1118917842
H   H16       1.0  0.71420  0.38620  0.38240  1.0000 0.1118917842
H   H17       1.0  0.58490  0.42690  0.84220  1.0000 0.1390855407
H   H18       1.0  0.42690  0.58490  0.65780  1.0000 0.1390855407
H   H19       1.0  0.41510  0.57310  0.15780  1.0000 0.1390855407
H   H20       1.0  0.57310  0.41510  0.34220  1.0000 0.1390855407
H   H21       1.0  0.33120  0.18500  0.01090  1.0000 0.1390855407
H   H22       1.0  0.18500  0.33120  0.48910  1.0000 0.1390855407
H   H23       1.0  0.66880  0.81500  0.98910  1.0000 0.1390855407
H   H24       1.0  0.81500  0.66880  0.51090  1.0000 0.1390855407
H   H25       1.0  0.36970  0.05290  0.04710  1.0000 0.1018518586
H   H26       1.0  0.05290  0.36970  0.45290  1.0000 0.1018518586
H   H27       1.0  0.63030  0.94710  0.95290  1.0000 0.1018518586
H   H28       1.0  0.94710  0.63030  0.54710  1.0000 0.1018518586
H   H29       1.0  0.18320  0.31580  0.02020  1.0000 0.1390855407
H   H30       1.0  0.31580  0.18320  0.47980  1.0000 0.1390855407
H   H31       1.0  0.81680  0.68420  0.97980  1.0000 0.1390855407
H   H32       1.0  0.68420  0.81680  0.52020  1.0000 0.1390855407
H   H33       1.0  0.06080  0.32840  0.05310  1.0000 0.1170730278
H   H34       1.0  0.32840  0.06080  0.44690  1.0000 0.1170730278
H   H35       1.0  0.93920  0.67160  0.94690  1.0000 0.1170730278
H   H36       1.0  0.67160  0.93920  0.55310  1.0000 0.1170730278
H   H37       1.0  0.18850  0.64830  0.87600  1.0000 0.1170730278
H   H38       1.0  0.64830  0.18850  0.62400  1.0000 0.1170730278
H   H39       1.0  0.81150  0.35170  0.12400  1.0000 0.1170730278
H   H40       1.0  0.35170  0.81150  0.37600  1.0000 0.1170730278
H   H41       1.0  0.31500  0.64560  0.83900  1.0000 0.1390855407
H   H42       1.0  0.64560  0.31500  0.66100  1.0000 0.1390855407
H   H43       1.0  0.68500  0.35440  0.16100  1.0000 0.1390855407
H   H44       1.0  0.35440  0.68500  0.33900  1.0000 0.1390855407
H   H45       1.0  0.48430  0.65570  0.82430  1.0000 0.2916814354
H   H46       1.0  0.65570  0.48430  0.67570  1.0000 0.2916814354
H   H47       1.0  0.51570  0.34430  0.17570  1.0000 0.2916814354
H   H48       1.0  0.34430  0.51570  0.32430  1.0000 0.2916814354
H   H49       1.0  0.11040  0.86480  0.75930  1.0000 0.3073125448
H   H50       1.0  0.86480  0.11040  0.74070  1.0000 0.3073125448
H   H51       1.0  0.88960  0.13520  0.24070  1.0000 0.3073125448
H   H52       1.0  0.13520  0.88960  0.25930  1.0000 0.3073125448
C   C1        1.0  0.23700  0.76640  0.57170  1.0000 0.5770116638
C   C2        1.0  0.76640  0.23700  0.92830  1.0000 0.5770116638
C   C3        1.0  0.76300  0.23360  0.42830  1.0000 0.5770116638
C   C4        1.0  0.23360  0.76300  0.07170  1.0000 0.5770116638
C   C5        1.0  0.28790  0.82890  0.65000  1.0000 -0.0607336602
C   C6        1.0  0.82890  0.28790  0.85000  1.0000 -0.0607336602
C   C7        1.0  0.71210  0.17110  0.35000  1.0000 -0.0607336602
C   C8        1.0  0.17110  0.71210  0.15000  1.0000 -0.0607336602
C   C9        1.0  0.40980  0.87720  0.70770  1.0000 -0.0607336602
C   C10       1.0  0.87720  0.40980  0.79230  1.0000 -0.0651859823
C   C11       1.0  0.59020  0.12280  0.29230  1.0000 -0.0607336602
C   C12       1.0  0.12280  0.59020  0.20770  1.0000 -0.0607336602
C   C13       1.0  0.50510  0.87830  0.69700  1.0000 0.5770116638
C   C14       1.0  0.87830  0.50510  0.80300  1.0000 0.5770116638
C   C15       1.0  0.49490  0.12170  0.30300  1.0000 0.5770116638
C   C16       1.0  0.12170  0.49490  0.19700  1.0000 0.5770116638
C   C17       1.0  0.20420  0.82680  0.66720  1.0000 -0.2221363891
C   C18       1.0  0.82680  0.20420  0.83280  1.0000 -0.2221363891
C   C19       1.0  0.79580  0.17320  0.33280  1.0000 -0.2221363891
C   C20       1.0  0.17320  0.79580  0.16720  1.0000 -0.2221363891
C   C21       1.0  0.24510  0.87590  0.74270  1.0000 0.1390855407
C   C22       1.0  0.87590  0.24510  0.75730  1.0000 0.1390855407
C   C23       1.0  0.75490  0.12410  0.25730  1.0000 0.1390855407
C   C24       1.0  0.12410  0.75490  0.24270  1.0000 0.1390855407
C   C25       1.0  0.36380  0.92100  0.80130  1.0000 0.1390855407
C   C26       1.0  0.92100  0.36380  0.69870  1.0000 0.1390855407
C   C27       1.0  0.63620  0.07900  0.19870  1.0000 0.1390855407
C   C28       1.0  0.07900  0.63620  0.30130  1.0000 0.1390855407
C   C29       1.0  0.44770  0.92410  0.78280  1.0000 -0.1815486583
C   C30       1.0  0.92410  0.44770  0.71720  1.0000 -0.1815486583
C   C31       1.0  0.55230  0.07590  0.21720  1.0000 -0.1815486583
C   C32       1.0  0.07590  0.55230  0.28280  1.0000 -0.1815486583
C   C33       1.0  0.26190  0.92550  0.85660  1.0000 0.192223933
C   C34       1.0  0.92550  0.26190  0.64340  1.0000 0.192223933
C   C35       1.0  0.73810  0.07450  0.14340  1.0000 0.192223933
C   C36       1.0  0.07450  0.73810  0.35660  1.0000 0.192223933
C   C37       1.0  0.55630  0.26490  0.90910  1.0000 0.0798681866
C   C38       1.0  0.26490  0.55630  0.59090  1.0000 0.0798681866
C   C39       1.0  0.44370  0.73510  0.09090  1.0000 0.0798681866
C   C40       1.0  0.73510  0.44370  0.40910  1.0000 0.0798681866
C   C41       1.0  0.53960  0.35120  0.88430  1.0000 -0.1723163292
C   C42       1.0  0.35120  0.53960  0.61570  1.0000 -0.1723163292
C   C43       1.0  0.46040  0.64880  0.11570  1.0000 -0.1723163292
C   C44       1.0  0.64880  0.46040  0.38430  1.0000 -0.1723163292
C   C45       1.0  0.45460  0.32380  0.92290  1.0000 0.0868721534
C   C46       1.0  0.32380  0.45460  0.57710  1.0000 0.0868721534
C   C47       1.0  0.54540  0.67620  0.07710  1.0000 0.0868721534
C   C48       1.0  0.67620  0.54540  0.42290  1.0000 0.0868721534
C   C49       1.0  0.39020  0.20880  0.98390  1.0000 -0.1723163292
C   C50       1.0  0.20880  0.39020  0.51610  1.0000 -0.1723163292
C   C51       1.0  0.60980  0.79120  0.01610  1.0000 -0.1723163292
C   C52       1.0  0.79120  0.60980  0.48390  1.0000 -0.1723163292
C   C53       1.0  0.41370  0.12890  0.00490  1.0000 0.052334201
C   C54       1.0  0.12890  0.41370  0.49510  1.0000 0.052334201
C   C55       1.0  0.58630  0.87110  0.99510  1.0000 0.052334201
C   C56       1.0  0.87110  0.58630  0.50490  1.0000 0.052334201
C   C57       1.0  0.42990  0.40910  0.90160  1.0000 0.2483112481
C   C58       1.0  0.40910  0.42990  0.59840  1.0000 0.2483112481
C   C59       1.0  0.57010  0.59090  0.09840  1.0000 0.2483112481
C   C60       1.0  0.59090  0.57010  0.40160  1.0000 0.2483112481
C   C61       1.0  0.34370  0.47070  0.90490  1.0000 0.2816759017
C   C62       1.0  0.47070  0.34370  0.59510  1.0000 0.2816759017
C   C63       1.0  0.65630  0.52930  0.09510  1.0000 0.2816759017
C   C64       1.0  0.52930  0.65630  0.40490  1.0000 0.2816759017
C   C65       1.0  0.26220  0.47900  0.92410  1.0000 0.0798681866
C   C66       1.0  0.47900  0.26220  0.57590  1.0000 0.0798681866
C   C67       1.0  0.73780  0.52100  0.07590  1.0000 0.0798681866
C   C68       1.0  0.52100  0.73780  0.42410  1.0000 0.0798681866
C   C69       1.0  0.18540  0.38400  0.98990  1.0000 -0.1723163292
C   C70       1.0  0.38400  0.18540  0.51010  1.0000 -0.1723163292
C   C71       1.0  0.81460  0.61600  0.01010  1.0000 -0.1723163292
C   C72       1.0  0.61600  0.81460  0.48990  1.0000 -0.1723163292
C   C73       1.0  0.11250  0.39290  0.00950  1.0000 0.0868721534
C   C74       1.0  0.39290  0.11250  0.49050  1.0000 0.0868721534
C   C75       1.0  0.88750  0.60710  0.99050  1.0000 0.0868721534
C   C76       1.0  0.60710  0.88750  0.50950  1.0000 0.0868721534
C   C77       1.0  0.18770  0.58090  0.90550  1.0000 0.0868721534
C   C78       1.0  0.58090  0.18770  0.59450  1.0000 0.0868721534
C   C79       1.0  0.81230  0.41910  0.09450  1.0000 0.0868721534
C   C80       1.0  0.41910  0.81230  0.40550  1.0000 0.0868721534
C   C81       1.0  0.26340  0.57960  0.88240  1.0000 -0.1815486583
C   C82       1.0  0.57960  0.26340  0.61760  1.0000 -0.1815486583
C   C83       1.0  0.73660  0.42040  0.11760  1.0000 -0.1815486583
C   C84       1.0  0.42040  0.73660  0.38240  1.0000 -0.1815486583
N   N1        1.0  0.49510  0.15270  0.96910  1.0000 -0.2254569862
N   N2        1.0  0.15270  0.49510  0.53090  1.0000 -0.2254569862
N   N3        1.0  0.50490  0.84730  0.03090  1.0000 -0.2254569862
N   N4        1.0  0.84730  0.50490  0.46910  1.0000 -0.2254569862
N   N5        1.0  0.33650  0.36970  0.93810  1.0000 -0.4384881887
N   N6        1.0  0.36970  0.33650  0.56190  1.0000 -0.4384881887
N   N7        1.0  0.66350  0.63030  0.06190  1.0000 -0.4384881887
N   N8        1.0  0.63030  0.66350  0.43810  1.0000 -0.4384881887
N   N9        1.0  0.49310  0.52770  0.85000  1.0000 -0.2594316784
N   N10       1.0  0.52770  0.49310  0.65000  1.0000 -0.2594316784
N   N11       1.0  0.50690  0.47230  0.15000  1.0000 -0.2594316784
N   N12       1.0  0.47230  0.50690  0.35000  1.0000 -0.2594316784
N   N13       1.0  0.43700  0.56800  0.85210  1.0000 -0.1723163292
N   N14       1.0  0.56800  0.43700  0.64790  1.0000 -0.1723163292
N   N15       1.0  0.56300  0.43200  0.14790  1.0000 -0.1723163292
N   N16       1.0  0.43200  0.56300  0.35210  1.0000 -0.1723163292
N   N17       1.0  0.11260  0.48960  0.96880  1.0000 -0.2221363891
N   N18       1.0  0.48960  0.11260  0.53120  1.0000 -0.2221363891
N   N19       1.0  0.88740  0.51040  0.03120  1.0000 -0.2221363891
N   N20       1.0  0.51040  0.88740  0.46880  1.0000 -0.2221363891
N   N21       1.0  0.18190  0.88150  0.77850  1.0000 -0.2594316784
N   N22       1.0  0.88150  0.18190  0.72150  1.0000 -0.2594316784
N   N23       1.0  0.81810  0.11850  0.22150  1.0000 -0.2594316784
N   N24       1.0  0.11850  0.81810  0.27850  1.0000 -0.2594316784
N   N25       1.0  0.37240  0.95100  0.87460  1.0000 -0.3419702533
N   N26       1.0  0.95100  0.37240  0.62540  1.0000 -0.3419702533
N   N27       1.0  0.62760  0.04900  0.12540  1.0000 -0.3419702533
N   N28       1.0  0.04900  0.62760  0.37460  1.0000 -0.3419702533
O   O1        1.0  0.12355  0.65385  0.56960  1.0000 -0.5404510829
O   O2        1.0  0.65385  0.12355  0.93040  1.0000 -0.5404510829
O   O3        1.0  0.87645  0.34615  0.43040  1.0000 -0.5404510829
O   O4        1.0  0.34615  0.87645  0.06960  1.0000 -0.5404510829
O   O5        1.0  0.30812  0.82868  0.51360  1.0000 -0.5518066022
O   O6        1.0  0.82868  0.30812  0.98640  1.0000 -0.5518066022
O   O7        1.0  0.69188  0.17132  0.48640  1.0000 -0.5518066022
O   O8        1.0  0.17132  0.69188  0.01360  1.0000 -0.5518066022
O   O9        1.0  0.56357  0.95043  0.63130  1.0000 -0.5518066022
O   O10       1.0  0.95043  0.56357  0.86870  1.0000 -0.5518066022
O   O11       1.0  0.43643  0.04957  0.36870  1.0000 -0.5518066022
O   O12       1.0  0.04957  0.43643  0.13130  1.0000 -0.5518066022
O   O13       1.0  0.52580  0.80960  0.75870  1.0000 -0.5710060332
O   O14       1.0  0.80960  0.52580  0.74130  1.0000 -0.5710060332
O   O15       1.0  0.47420  0.19040  0.24130  1.0000 -0.5710060332
O   O16       1.0  0.19040  0.47420  0.25870  1.0000 -0.5710060332
