# DDEC6 charges by PACMAN v1.1 (https://github.com/mtap-research/PACMAN-charge/)
data_2011[Zn][rtl]3[ASR]1
_chemical_formula_sum              "Zn4 H32 C56 N8 O20"
_cell_length_a       13.99
_cell_length_b       13.749
_cell_length_c       14.073
_cell_angle_alpha    90
_cell_angle_beta     110.538
_cell_angle_gamma    90

_symmetry_space_group_name_H-M    "P 1"
_symmetry_Int_Tables_number       1

loop_
  _symmetry_equiv_pos_as_xyz
  'x, y, z'

loop_
  _atom_site_type_symbol
  _atom_site_label
  _atom_site_symmetry_multiplicity
  _atom_site_fract_x
  _atom_site_fract_y
  _atom_site_fract_z
  _atom_site_occupancy
  _atom_site_charge
Zn  Zn1       1.0  0.90492  0.05830  0.95727  1.0000 0.8377831403
Zn  Zn2       1.0  0.09508  0.55830  0.54273  1.0000 0.8377831403
Zn  Zn3       1.0  0.09508  0.94170  0.04273  1.0000 0.8377831403
Zn  Zn4       1.0  0.90492  0.44170  0.45727  1.0000 0.8377831403
H   H1        1.0  0.60220  0.89460  0.16660  1.0000 0.2750249627
H   H2        1.0  0.39780  0.39460  0.33340  1.0000 0.2750249627
H   H3        1.0  0.39780  0.10540  0.83340  1.0000 0.2750249627
H   H4        1.0  0.60220  0.60540  0.66667  1.0000 0.2750249627
H   H5        1.0  0.74450  0.91640  0.11930  1.0000 0.1236959557
H   H6        1.0  0.25550  0.41640  0.38070  1.0000 0.1236959557
H   H7        1.0  0.25550  0.08360  0.88070  1.0000 0.1236959557
H   H8        1.0  0.74450  0.58360  0.61930  1.0000 0.1236959557
H   H9        1.0  0.00390  0.76750  0.26850  1.0000 0.1298887966
H   H10       1.0  0.99610  0.26750  0.23150  1.0000 0.1298887966
H   H11       1.0  0.99610  0.23250  0.73150  1.0000 0.1298887966
H   H12       1.0  0.00390  0.73250  0.76850  1.0000 0.1298887966
H   H13       1.0  0.74010  0.70060  0.31460  1.0000 0.1298887966
H   H14       1.0  0.25990  0.20060  0.18540  1.0000 0.1298887966
H   H15       1.0  0.25990  0.29940  0.68540  1.0000 0.1298887966
H   H16       1.0  0.74010  0.79940  0.81460  1.0000 0.1298887966
H   H17       1.0  0.30670  0.02120  0.11660  1.0000 0.1298887966
H   H18       1.0  0.69330  0.52120  0.38340  1.0000 0.1298887966
H   H19       1.0  0.69330  0.97880  0.88340  1.0000 0.1298887966
H   H20       1.0  0.30670  0.47880  0.61660  1.0000 0.1298887966
H   H21       1.0  0.47420  0.96970  0.17730  1.0000 0.1391090809
H   H22       1.0  0.52580  0.46970  0.32270  1.0000 0.1391090809
H   H23       1.0  0.52580  0.03030  0.82270  1.0000 0.1391090809
H   H24       1.0  0.47420  0.53030  0.67730  1.0000 0.1298887966
H   H25       1.0  0.37380  0.69180  0.15930  1.0000 0.1391090809
H   H26       1.0  0.62620  0.19180  0.34070  1.0000 0.1391090809
H   H27       1.0  0.62620  0.30820  0.84070  1.0000 0.1391090809
H   H28       1.0  0.37380  0.80820  0.65930  1.0000 0.1391090809
H   H29       1.0  0.20700  0.74970  0.09620  1.0000 0.1298887966
H   H30       1.0  0.79300  0.24970  0.40380  1.0000 0.1298887966
H   H31       1.0  0.79300  0.25030  0.90380  1.0000 0.1298887966
H   H32       1.0  0.20700  0.75030  0.59620  1.0000 0.1298887966
C   C1        1.0  0.72660  0.81330  0.21520  1.0000 0.2337702039
C   C2        1.0  0.27340  0.31330  0.28480  1.0000 0.2337702039
C   C3        1.0  0.27340  0.18670  0.78480  1.0000 0.2337702039
C   C4        1.0  0.72660  0.68670  0.71520  1.0000 0.2337702039
C   C5        1.0  0.77900  0.86690  0.16570  1.0000 -0.2171419588
C   C6        1.0  0.22100  0.36690  0.33430  1.0000 -0.2171419588
C   C7        1.0  0.22100  0.13310  0.83430  1.0000 -0.2171419588
C   C8        1.0  0.77900  0.63310  0.66570  1.0000 -0.2171419588
C   C9        1.0  0.88200  0.84880  0.18350  1.0000 0.0017160356
C   C10       1.0  0.11800  0.34880  0.31650  1.0000 0.0017160356
C   C11       1.0  0.11800  0.15120  0.81650  1.0000 0.0017160356
C   C12       1.0  0.88200  0.65120  0.68350  1.0000 0.0017160356
C   C13       1.0  0.93300  0.77790  0.25330  1.0000 -0.1362922367
C   C14       1.0  0.06700  0.27790  0.24670  1.0000 -0.1345696973
C   C15       1.0  0.06700  0.22210  0.74670  1.0000 -0.1345696973
C   C16       1.0  0.93300  0.72210  0.75330  1.0000 -0.1345696973
C   C17       1.0  0.87960  0.72200  0.30090  1.0000 0.0017160356
C   C18       1.0  0.12040  0.22200  0.19910  1.0000 -0.0006481448
C   C19       1.0  0.12040  0.27800  0.69910  1.0000 0.0017160356
C   C20       1.0  0.87960  0.77800  0.80090  1.0000 0.0017160356
C   C21       1.0  0.77620  0.73900  0.28220  1.0000 -0.195703077
C   C22       1.0  0.22380  0.23900  0.21780  1.0000 -0.1909812149
C   C23       1.0  0.22380  0.26100  0.71780  1.0000 -0.1909812149
C   C24       1.0  0.77620  0.76100  0.78220  1.0000 -0.195703077
C   C25       1.0  0.54920  0.78180  0.21120  1.0000 0.4565117705
C   C26       1.0  0.45080  0.28180  0.28880  1.0000 0.4565117705
C   C27       1.0  0.45080  0.21820  0.78880  1.0000 0.4565117705
C   C28       1.0  0.54920  0.71820  0.71120  1.0000 0.4565117705
C   C29       1.0  0.32050  0.95350  0.12510  1.0000 0.0899795118
C   C30       1.0  0.67950  0.45350  0.37490  1.0000 0.0899795118
C   C31       1.0  0.67950  0.04650  0.87490  1.0000 0.0899795118
C   C32       1.0  0.32050  0.54650  0.62510  1.0000 0.0899795118
C   C33       1.0  0.42050  0.92340  0.16130  1.0000 -0.1909812149
C   C34       1.0  0.57950  0.42340  0.33870  1.0000 -0.1909812149
C   C35       1.0  0.57950  0.07660  0.83870  1.0000 -0.1909812149
C   C36       1.0  0.42050  0.57660  0.66130  1.0000 -0.1909812149
C   C37       1.0  0.44240  0.82500  0.17440  1.0000 0.0206774446
C   C38       1.0  0.55760  0.32500  0.32560  1.0000 0.0206774446
C   C39       1.0  0.55760  0.17500  0.82560  1.0000 0.0206774446
C   C40       1.0  0.44240  0.67500  0.67440  1.0000 0.0206774446
C   C41       1.0  0.36130  0.75970  0.15040  1.0000 -0.1563417864
C   C42       1.0  0.63870  0.25970  0.34960  1.0000 -0.1563417864
C   C43       1.0  0.63870  0.24030  0.84960  1.0000 -0.1563417864
C   C44       1.0  0.36130  0.74030  0.65040  1.0000 -0.1563417864
C   C45       1.0  0.26200  0.79470  0.11330  1.0000 0.0899795118
C   C46       1.0  0.73800  0.29470  0.38670  1.0000 0.0899795118
C   C47       1.0  0.73800  0.20530  0.88670  1.0000 0.0899795118
C   C48       1.0  0.26200  0.70530  0.61330  1.0000 0.0899795118
C   C49       1.0  0.93570  0.90550  0.12420  1.0000 0.5882654014
C   C50       1.0  0.06430  0.40550  0.37580  1.0000 0.5882654014
C   C51       1.0  0.06430  0.09450  0.87580  1.0000 0.5882654014
C   C52       1.0  0.93570  0.59450  0.62420  1.0000 0.5882654014
C   C53       1.0  0.93330  0.64300  0.37510  1.0000 0.5882654014
C   C54       1.0  0.06670  0.14300  0.12490  1.0000 0.5882654014
C   C55       1.0  0.06670  0.35700  0.62490  1.0000 0.5882654014
C   C56       1.0  0.93330  0.85700  0.87510  1.0000 0.5882654014
N   N1        1.0  0.62200  0.83720  0.19400  1.0000 -0.3583937761
N   N2        1.0  0.37800  0.33720  0.30600  1.0000 -0.3583937761
N   N3        1.0  0.37800  0.16280  0.80600  1.0000 -0.3583937761
N   N4        1.0  0.62200  0.66280  0.69400  1.0000 -0.3583937761
N   N5        1.0  0.24100  0.89090  0.10100  1.0000 -0.1909812149
N   N6        1.0  0.75900  0.39090  0.39900  1.0000 -0.1909812149
N   N7        1.0  0.75900  0.10910  0.89900  1.0000 -0.1909812149
N   N8        1.0  0.24100  0.60910  0.60100  1.0000 -0.1909812149
O   O1        1.0  0.56510  0.70260  0.25260  1.0000 -0.4709417847
O   O2        1.0  0.43490  0.20260  0.24740  1.0000 -0.4709417847
O   O3        1.0  0.43490  0.29740  0.74740  1.0000 -0.4709417847
O   O4        1.0  0.56510  0.79740  0.75260  1.0000 -0.4709417847
O   O5        1.0  0.88450  0.97300  0.06900  1.0000 -0.5603468594
O   O6        1.0  0.11550  0.47300  0.43100  1.0000 -0.5603468594
O   O7        1.0  0.11550  0.02700  0.93100  1.0000 -0.5603468594
O   O8        1.0  0.88450  0.52700  0.56900  1.0000 -0.5603468594
O   O9        1.0  0.02450  0.87970  0.13240  1.0000 -0.5317080495
O   O10       1.0  0.97550  0.37970  0.36760  1.0000 -0.5317080495
O   O11       1.0  0.97550  0.12030  0.86760  1.0000 -0.5317080495
O   O12       1.0  0.02450  0.62030  0.63240  1.0000 -0.5317080495
O   O13       1.0  0.02420  0.65700  0.43180  1.0000 -0.5367366251
O   O14       1.0  0.97580  0.15700  0.06820  1.0000 -0.5367366251
O   O15       1.0  0.97580  0.34300  0.56820  1.0000 -0.5367366251
O   O16       1.0  0.02420  0.84300  0.93180  1.0000 -0.5367366251
O   O17       1.0  0.88030  0.56780  0.37440  1.0000 -0.5603468594
O   O18       1.0  0.11970  0.06780  0.12560  1.0000 -0.5603468594
O   O19       1.0  0.11970  0.43220  0.62560  1.0000 -0.5603468594
O   O20       1.0  0.88030  0.93220  0.87440  1.0000 -0.5603468594
