# DDEC6 charges by PACMAN v1.1 (https://github.com/mtap-research/PACMAN-charge/)
data_0000[Zn][hex]3[ASR]1
_chemical_formula_sum              "Zn12 H128 C208 N8 O48"
_cell_length_a       14.608
_cell_length_b       18.041
_cell_length_c       28.784
_cell_angle_alpha    90
_cell_angle_beta     120.493
_cell_angle_gamma    90

_symmetry_space_group_name_H-M    "P 1"
_symmetry_Int_Tables_number       1

loop_
  _symmetry_equiv_pos_as_xyz
  'x, y, z'

loop_
  _atom_site_type_symbol
  _atom_site_label
  _atom_site_symmetry_multiplicity
  _atom_site_fract_x
  _atom_site_fract_y
  _atom_site_fract_z
  _atom_site_occupancy
  _atom_site_charge
Zn  Zn1       1.0  0.31087  0.43541  0.35054  1.0000 0.8287351719
Zn  Zn2       1.0  0.31087  0.06459  0.85054  1.0000 0.8287351719
Zn  Zn3       1.0  0.34286  0.24366  0.34907  1.0000 1.0459797374
Zn  Zn4       1.0  0.34286  0.25634  0.84907  1.0000 1.0459797374
Zn  Zn5       1.0  0.38154  0.05008  0.35011  1.0000 0.8356825105
Zn  Zn6       1.0  0.38154  0.44992  0.85011  1.0000 0.8356825105
Zn  Zn7       1.0  0.68913  0.93541  0.14946  1.0000 0.8287351719
Zn  Zn8       1.0  0.68913  0.56459  0.64946  1.0000 0.8287351719
Zn  Zn9       1.0  0.65714  0.74366  0.15093  1.0000 1.0459797374
Zn  Zn10      1.0  0.65714  0.75634  0.65093  1.0000 1.0459797374
Zn  Zn11      1.0  0.61846  0.55008  0.14989  1.0000 0.8356825105
Zn  Zn12      1.0  0.61846  0.94992  0.64989  1.0000 0.8356825105
H   H1        1.0  0.43890  0.55670  0.42490  1.0000 0.112350084
H   H2        1.0  0.43890  0.94330  0.92490  1.0000 0.112350084
H   H3        1.0  0.45970  0.68460  0.42690  1.0000 0.1312865888
H   H4        1.0  0.45970  0.81540  0.92690  1.0000 0.1312865888
H   H5        1.0  0.21510  0.68950  0.27110  1.0000 0.1362107462
H   H6        1.0  0.21510  0.81050  0.77110  1.0000 0.1362107462
H   H7        1.0  0.20270  0.56300  0.27450  1.0000 0.1187771931
H   H8        1.0  0.20270  0.93700  0.77450  1.0000 0.1187771931
H   H9        1.0  0.40000  0.92870  0.42390  1.0000 0.112350084
H   H10       1.0  0.40000  0.57130  0.92390  1.0000 0.112350084
H   H11       1.0  0.38110  0.80160  0.42540  1.0000 0.1312865888
H   H12       1.0  0.38110  0.69840  0.92540  1.0000 0.1312865888
H   H13       1.0  0.32510  0.79360  0.27240  1.0000 0.1312865888
H   H14       1.0  0.32510  0.70640  0.77240  1.0000 0.1312865888
H   H15       1.0  0.34610  0.92140  0.27510  1.0000 0.1187771931
H   H16       1.0  0.34610  0.57860  0.77510  1.0000 0.1187771931
H   H17       1.0  0.98580  0.40630  0.31860  1.0000 0.1187771931
H   H18       1.0  0.98580  0.09370  0.81860  1.0000 0.1187771931
H   H19       1.0  0.83170  0.36150  0.31460  1.0000 0.1011912702
H   H20       1.0  0.83170  0.13850  0.81460  1.0000 0.1011912702
H   H21       1.0  0.98220  0.16810  0.38240  1.0000 0.112350084
H   H22       1.0  0.98220  0.33190  0.88240  1.0000 0.112350084
H   H23       1.0  0.13620  0.21300  0.38630  1.0000 0.1312865888
H   H24       1.0  0.13620  0.28700  0.88630  1.0000 0.1312865888
H   H25       1.0  0.82880  0.12090  0.34810  1.0000 0.1187771931
H   H26       1.0  0.82880  0.37910  0.84810  1.0000 0.1187771931
H   H27       1.0  0.67780  0.07530  0.34510  1.0000 0.1187771931
H   H28       1.0  0.67780  0.42470  0.84510  1.0000 0.1187771931
H   H29       1.0  0.56690  0.28340  0.33250  1.0000 0.1312865888
H   H30       1.0  0.56690  0.21660  0.83250  1.0000 0.1312865888
H   H31       1.0  0.72220  0.33060  0.33980  1.0000 0.112350084
H   H32       1.0  0.72220  0.16940  0.83980  1.0000 0.112350084
H   H33       1.0  0.61270  0.47360  0.48770  1.0000 0.1187771931
H   H34       1.0  0.61270  0.02640  0.98770  1.0000 0.1187771931
H   H35       1.0  0.77950  0.47370  0.56550  1.0000 0.1187771931
H   H36       1.0  0.77950  0.02630  0.06550  1.0000 0.1187771931
H   H37       1.0  0.79470  0.24960  0.55630  1.0000 0.112350084
H   H38       1.0  0.79470  0.25040  0.05630  1.0000 0.112350084
H   H39       1.0  0.62980  0.25070  0.47580  1.0000 0.1312865888
H   H40       1.0  0.62980  0.24930  0.97580  1.0000 0.1312865888
H   H41       1.0  0.95340  0.46420  0.61000  1.0000 0.1187771931
H   H42       1.0  0.95340  0.03580  0.11000  1.0000 0.1187771931
H   H43       1.0  0.11360  0.46980  0.69200  1.0000 0.1187771931
H   H44       1.0  0.11360  0.03020  0.19200  1.0000 0.1187771931
H   H45       1.0  0.05170  0.26950  0.73250  1.0000 0.1312865888
H   H46       1.0  0.05170  0.23050  0.23250  1.0000 0.1312865888
H   H47       1.0  0.89650  0.26080  0.64890  1.0000 0.112350084
H   H48       1.0  0.89650  0.23920  0.14890  1.0000 0.112350084
H   H49       1.0  0.39400  0.45560  0.22980  1.0000 0.1187771931
H   H50       1.0  0.39400  0.04440  0.72980  1.0000 0.1187771931
H   H51       1.0  0.41450  0.45520  0.15500  1.0000 0.112350084
H   H52       1.0  0.41450  0.04480  0.65500  1.0000 0.112350084
H   H53       1.0  0.26290  0.25810  0.10890  1.0000 0.112350084
H   H54       1.0  0.26290  0.24190  0.60890  1.0000 0.112350084
H   H55       1.0  0.24840  0.25560  0.18620  1.0000 0.1312865888
H   H56       1.0  0.24840  0.24440  0.68620  1.0000 0.1312865888
H   H57       1.0  0.34630  0.47350  0.06940  1.0000 0.1187771931
H   H58       1.0  0.34630  0.02650  0.56940  1.0000 0.1187771931
H   H59       1.0  0.36170  0.47970  0.99290  1.0000 0.1187771931
H   H60       1.0  0.36170  0.02030  0.49290  1.0000 0.1187771931
H   H61       1.0  0.36450  0.25600  0.98640  1.0000 0.1312865888
H   H62       1.0  0.36450  0.24400  0.48640  1.0000 0.1312865888
H   H63       1.0  0.34500  0.24920  0.06160  1.0000 0.112350084
H   H64       1.0  0.34500  0.25080  0.56160  1.0000 0.112350084
H   H65       1.0  0.56110  0.05670  0.07510  1.0000 0.112350084
H   H66       1.0  0.56110  0.44330  0.57510  1.0000 0.112350084
H   H67       1.0  0.54030  0.18460  0.07310  1.0000 0.1312865888
H   H68       1.0  0.54030  0.31540  0.57310  1.0000 0.1312865888
H   H69       1.0  0.78490  0.18950  0.22890  1.0000 0.1362107462
H   H70       1.0  0.78490  0.31050  0.72890  1.0000 0.1362107462
H   H71       1.0  0.79730  0.06300  0.22550  1.0000 0.1187771931
H   H72       1.0  0.79730  0.43700  0.72550  1.0000 0.1187771931
H   H73       1.0  0.60000  0.42870  0.07610  1.0000 0.112350084
H   H74       1.0  0.60000  0.07130  0.57610  1.0000 0.112350084
H   H75       1.0  0.61890  0.30160  0.07460  1.0000 0.1312865888
H   H76       1.0  0.61890  0.19840  0.57460  1.0000 0.1312865888
H   H77       1.0  0.67490  0.29360  0.22760  1.0000 0.1312865888
H   H78       1.0  0.67490  0.20640  0.72760  1.0000 0.1312865888
H   H79       1.0  0.65390  0.42140  0.22490  1.0000 0.1187771931
H   H80       1.0  0.65390  0.07860  0.72490  1.0000 0.1187771931
H   H81       1.0  0.01420  0.90630  0.18140  1.0000 0.1187771931
H   H82       1.0  0.01420  0.59370  0.68140  1.0000 0.1187771931
H   H83       1.0  0.16830  0.86150  0.18540  1.0000 0.1011912702
H   H84       1.0  0.16830  0.63850  0.68540  1.0000 0.1011912702
H   H85       1.0  0.01780  0.66810  0.11760  1.0000 0.112350084
H   H86       1.0  0.01780  0.83190  0.61760  1.0000 0.112350084
H   H87       1.0  0.86380  0.71300  0.11370  1.0000 0.1312865888
H   H88       1.0  0.86380  0.78700  0.61370  1.0000 0.1312865888
H   H89       1.0  0.17120  0.62090  0.15190  1.0000 0.112350084
H   H90       1.0  0.17120  0.87910  0.65190  1.0000 0.112350084
H   H91       1.0  0.32220  0.57530  0.15490  1.0000 0.1187771931
H   H92       1.0  0.32220  0.92470  0.65490  1.0000 0.1187771931
H   H93       1.0  0.43310  0.78340  0.16750  1.0000 0.1312865888
H   H94       1.0  0.43310  0.71660  0.66750  1.0000 0.1312865888
H   H95       1.0  0.27780  0.83060  0.16020  1.0000 0.112350084
H   H96       1.0  0.27780  0.66940  0.66020  1.0000 0.112350084
H   H97       1.0  0.38730  0.97360  0.01230  1.0000 0.1187771931
H   H98       1.0  0.38730  0.52640  0.51230  1.0000 0.1187771931
H   H99       1.0  0.22050  0.97370  0.93450  1.0000 0.1187771931
H   H100      1.0  0.22050  0.52630  0.43450  1.0000 0.1187771931
H   H101      1.0  0.20530  0.74960  0.94370  1.0000 0.112350084
H   H102      1.0  0.20530  0.75040  0.44370  1.0000 0.112350084
H   H103      1.0  0.37020  0.75070  0.02420  1.0000 0.1312865888
H   H104      1.0  0.37020  0.74930  0.52420  1.0000 0.1312865888
H   H105      1.0  0.04660  0.96420  0.89000  1.0000 0.1187771931
H   H106      1.0  0.04660  0.53580  0.39000  1.0000 0.1187771931
H   H107      1.0  0.88640  0.96980  0.80800  1.0000 0.1187771931
H   H108      1.0  0.88640  0.53020  0.30800  1.0000 0.1187771931
H   H109      1.0  0.94830  0.76950  0.76750  1.0000 0.1312865888
H   H110      1.0  0.94830  0.73050  0.26750  1.0000 0.1312865888
H   H111      1.0  0.10350  0.76080  0.85110  1.0000 0.112350084
H   H112      1.0  0.10350  0.73920  0.35110  1.0000 0.112350084
H   H113      1.0  0.60600  0.95560  0.27020  1.0000 0.1187771931
H   H114      1.0  0.60600  0.54440  0.77020  1.0000 0.1187771931
H   H115      1.0  0.58550  0.95520  0.34500  1.0000 0.112350084
H   H116      1.0  0.58550  0.54480  0.84500  1.0000 0.112350084
H   H117      1.0  0.73710  0.75810  0.39110  1.0000 0.1187771931
H   H118      1.0  0.73710  0.74190  0.89110  1.0000 0.112350084
H   H119      1.0  0.75160  0.75560  0.31380  1.0000 0.1312865888
H   H120      1.0  0.75160  0.74440  0.81380  1.0000 0.1312865888
H   H121      1.0  0.65370  0.97350  0.43060  1.0000 0.1187771931
H   H122      1.0  0.65370  0.52650  0.93060  1.0000 0.1187771931
H   H123      1.0  0.63830  0.97970  0.50710  1.0000 0.1187771931
H   H124      1.0  0.63830  0.52030  0.00710  1.0000 0.1187771931
H   H125      1.0  0.63550  0.75600  0.51360  1.0000 0.1312865888
H   H126      1.0  0.63550  0.74400  0.01360  1.0000 0.1312865888
H   H127      1.0  0.65500  0.74920  0.43840  1.0000 0.112350084
H   H128      1.0  0.65500  0.75080  0.93840  1.0000 0.112350084
C   C1        1.0  0.39288  0.58470  0.39368  1.0000 0.1011912702
C   C2        1.0  0.39288  0.91530  0.89368  1.0000 0.1011912702
C   C3        1.0  0.40642  0.66080  0.39512  1.0000 -0.1896761081
C   C4        1.0  0.40642  0.83920  0.89512  1.0000 -0.1896761081
C   C5        1.0  0.34009  0.70189  0.34899  1.0000 0.1187771931
C   C6        1.0  0.34009  0.79811  0.84899  1.0000 0.1187771931
C   C7        1.0  0.26202  0.66340  0.30322  1.0000 -0.1896761081
C   C8        1.0  0.26202  0.83660  0.80322  1.0000 -0.1896761081
C   C9        1.0  0.25480  0.58840  0.30570  1.0000 0.0778417132
C   C10       1.0  0.25480  0.91160  0.80570  1.0000 0.0778417132
C   C11       1.0  0.38445  0.90070  0.39275  1.0000 0.0885093865
C   C12       1.0  0.38445  0.59930  0.89275  1.0000 0.0885093865
C   C13       1.0  0.37365  0.82500  0.39405  1.0000 -0.1830386193
C   C14       1.0  0.37365  0.67500  0.89405  1.0000 -0.1830386193
C   C15       1.0  0.35180  0.78329  0.34910  1.0000 0.112350084
C   C16       1.0  0.35180  0.71671  0.84910  1.0000 0.112350084
C   C17       1.0  0.34084  0.82040  0.30404  1.0000 -0.1896761081
C   C18       1.0  0.34084  0.67960  0.80404  1.0000 -0.1896761081
C   C19       1.0  0.35296  0.89670  0.30586  1.0000 0.0885093865
C   C20       1.0  0.35296  0.60330  0.80586  1.0000 0.0885093865
C   C21       1.0  0.17523  0.34260  0.35653  1.0000 0.5894916248
C   C22       1.0  0.17523  0.15740  0.85653  1.0000 0.5894916248
C   C23       1.0  0.07553  0.31390  0.35253  1.0000 -0.0309855183
C   C24       1.0  0.07553  0.18610  0.85253  1.0000 -0.0309855183
C   C25       1.0  0.98501  0.35780  0.33131  1.0000 -0.101515566
C   C26       1.0  0.98501  0.14220  0.83131  1.0000 -0.101515566
C   C27       1.0  0.89286  0.33080  0.32866  1.0000 -0.1686040023
C   C28       1.0  0.89286  0.16920  0.82866  1.0000 -0.1686040023
C   C29       1.0  0.88958  0.25922  0.34648  1.0000 0.0715110861
C   C30       1.0  0.88958  0.24078  0.84648  1.0000 0.0715110861
C   C31       1.0  0.98207  0.21620  0.36887  1.0000 -0.1511497485
C   C32       1.0  0.98207  0.28380  0.86887  1.0000 -0.1511497485
C   C33       1.0  0.07420  0.24310  0.37150  1.0000 -0.0844369018
C   C34       1.0  0.07420  0.25690  0.87150  1.0000 -0.0844369018
C   C35       1.0  0.79025  0.23060  0.34285  1.0000 0.0648995108
C   C36       1.0  0.79025  0.26940  0.84285  1.0000 0.0648995108
C   C37       1.0  0.77600  0.15440  0.34530  1.0000 -0.1511497485
C   C38       1.0  0.77600  0.34560  0.84530  1.0000 -0.1511497485
C   C39       1.0  0.68651  0.12730  0.34371  1.0000 -0.101515566
C   C40       1.0  0.68651  0.37270  0.84371  1.0000 -0.101515566
C   C41       1.0  0.60894  0.17500  0.34014  1.0000 -0.0309855183
C   C42       1.0  0.60894  0.32500  0.84014  1.0000 -0.0309855183
C   C43       1.0  0.62145  0.25040  0.33685  1.0000 -0.0898518689
C   C44       1.0  0.62145  0.24960  0.83685  1.0000 -0.0898518689
C   C45       1.0  0.71264  0.27850  0.33984  1.0000 -0.1511497485
C   C46       1.0  0.71264  0.22150  0.83984  1.0000 -0.1511497485
C   C47       1.0  0.51138  0.14640  0.33878  1.0000 0.5894916248
C   C48       1.0  0.51138  0.35360  0.83878  1.0000 0.5894916248
C   C49       1.0  0.49864  0.36270  0.42454  1.0000 0.5980496
C   C50       1.0  0.49864  0.13730  0.92454  1.0000 0.5980496
C   C51       1.0  0.60610  0.36160  0.47450  1.0000 -0.0409235637
C   C52       1.0  0.60610  0.13840  0.97450  1.0000 -0.0409235637
C   C53       1.0  0.65026  0.42840  0.50136  1.0000 -0.1074351081
C   C54       1.0  0.65026  0.07160  0.00136  1.0000 -0.1074351081
C   C55       1.0  0.74874  0.42820  0.54784  1.0000 -0.1511497485
C   C56       1.0  0.74874  0.07180  0.04784  1.0000 -0.1511497485
C   C57       1.0  0.80397  0.36160  0.56937  1.0000 0.0715110861
C   C58       1.0  0.80397  0.13840  0.06937  1.0000 0.0715110861
C   C59       1.0  0.75843  0.29520  0.54223  1.0000 -0.1596374632
C   C60       1.0  0.75843  0.20480  0.04223  1.0000 -0.1596374632
C   C61       1.0  0.65980  0.29570  0.49450  1.0000 -0.1074351081
C   C62       1.0  0.65980  0.20430  0.99450  1.0000 -0.1074351081
C   C63       1.0  0.90738  0.36300  0.62128  1.0000 0.0715110861
C   C64       1.0  0.90738  0.13700  0.12128  1.0000 0.0715110861
C   C65       1.0  0.97359  0.42410  0.63469  1.0000 -0.1511497485
C   C66       1.0  0.97359  0.07590  0.13469  1.0000 -0.1511497485
C   C67       1.0  0.06884  0.42770  0.68354  1.0000 -0.101515566
C   C68       1.0  0.06884  0.07230  0.18354  1.0000 -0.101515566
C   C69       1.0  0.09789  0.36970  0.71959  1.0000 -0.0309855183
C   C70       1.0  0.09789  0.13030  0.21959  1.0000 -0.0309855183
C   C71       1.0  0.03240  0.30860  0.70710  1.0000 -0.0898518689
C   C72       1.0  0.03240  0.19140  0.20710  1.0000 -0.0898518689
C   C73       1.0  0.93919  0.30410  0.65789  1.0000 -0.1596374632
C   C74       1.0  0.93919  0.19590  0.15789  1.0000 -0.1596374632
C   C75       1.0  0.19738  0.37570  0.77368  1.0000 0.5980496
C   C76       1.0  0.19738  0.12430  0.27368  1.0000 0.5980496
C   C77       1.0  0.30754  0.35820  0.26454  1.0000 0.5980496
C   C78       1.0  0.30754  0.14180  0.76454  1.0000 0.5980496
C   C79       1.0  0.31814  0.35660  0.21574  1.0000 -0.0309855183
C   C80       1.0  0.31814  0.14340  0.71574  1.0000 -0.0309855183
C   C81       1.0  0.36753  0.41500  0.20543  1.0000 -0.101515566
C   C82       1.0  0.36753  0.08500  0.70543  1.0000 -0.101515566
C   C83       1.0  0.37883  0.41530  0.16063  1.0000 -0.1596374632
C   C84       1.0  0.37883  0.08470  0.66063  1.0000 -0.1596374632
C   C85       1.0  0.33788  0.35730  0.12368  1.0000 0.0715110861
C   C86       1.0  0.33788  0.14270  0.62368  1.0000 0.0715110861
C   C87       1.0  0.28984  0.29820  0.13364  1.0000 -0.1511497485
C   C88       1.0  0.28984  0.20180  0.63364  1.0000 -0.1511497485
C   C89       1.0  0.28031  0.29690  0.17951  1.0000 -0.0898518689
C   C90       1.0  0.28031  0.20310  0.67951  1.0000 -0.0898518689
C   C91       1.0  0.34600  0.36060  0.07410  1.0000 0.0715110861
C   C92       1.0  0.34600  0.13940  0.57410  1.0000 0.0715110861
C   C93       1.0  0.35012  0.42910  0.05272  1.0000 -0.1511497485
C   C94       1.0  0.35012  0.07090  0.55272  1.0000 -0.1511497485
C   C95       1.0  0.35986  0.43270  0.00726  1.0000 -0.101515566
C   C96       1.0  0.35986  0.06730  0.50726  1.0000 -0.101515566
C   C97       1.0  0.36698  0.36950  0.98278  1.0000 -0.0466853631
C   C98       1.0  0.36698  0.13050  0.48278  1.0000 -0.0466853631
C   C99       1.0  0.36095  0.30020  0.00335  1.0000 -0.101515566
C   C100      1.0  0.36095  0.19980  0.50335  1.0000 -0.101515566
C   C101      1.0  0.34993  0.29630  0.04823  1.0000 -0.1596374632
C   C102      1.0  0.34993  0.20370  0.54823  1.0000 -0.1596374632
C   C103      1.0  0.38229  0.37290  0.93539  1.0000 0.5894916248
C   C104      1.0  0.38229  0.12710  0.43539  1.0000 0.5894916248
C   C105      1.0  0.60712  0.08470  0.10632  1.0000 0.1011912702
C   C106      1.0  0.60712  0.41530  0.60632  1.0000 0.1011912702
C   C107      1.0  0.59358  0.16080  0.10488  1.0000 -0.1896761081
C   C108      1.0  0.59358  0.33920  0.60488  1.0000 -0.1896761081
C   C109      1.0  0.65991  0.20189  0.15101  1.0000 0.1187771931
C   C110      1.0  0.65991  0.29811  0.65101  1.0000 0.1187771931
C   C111      1.0  0.73798  0.16340  0.19678  1.0000 -0.1896761081
C   C112      1.0  0.73798  0.33660  0.69678  1.0000 -0.1896761081
C   C113      1.0  0.74520  0.08840  0.19430  1.0000 0.0778417132
C   C114      1.0  0.74520  0.41160  0.69430  1.0000 0.0778417132
C   C115      1.0  0.61555  0.40070  0.10725  1.0000 0.0885093865
C   C116      1.0  0.61555  0.09930  0.60725  1.0000 0.0885093865
C   C117      1.0  0.62635  0.32500  0.10595  1.0000 -0.1830386193
C   C118      1.0  0.62635  0.17500  0.60595  1.0000 -0.1830386193
C   C119      1.0  0.64820  0.28329  0.15090  1.0000 0.112350084
C   C120      1.0  0.64820  0.21671  0.65090  1.0000 0.112350084
C   C121      1.0  0.65916  0.32040  0.19596  1.0000 -0.1896761081
C   C122      1.0  0.65916  0.17960  0.69596  1.0000 -0.1896761081
C   C123      1.0  0.64704  0.39670  0.19414  1.0000 0.0885093865
C   C124      1.0  0.64704  0.10330  0.69414  1.0000 0.0885093865
C   C125      1.0  0.82477  0.84260  0.14347  1.0000 0.5894916248
C   C126      1.0  0.82477  0.65740  0.64347  1.0000 0.5894916248
C   C127      1.0  0.92447  0.81390  0.14747  1.0000 -0.0309855183
C   C128      1.0  0.92447  0.68610  0.64747  1.0000 -0.0309855183
C   C129      1.0  0.01499  0.85780  0.16869  1.0000 -0.101515566
C   C130      1.0  0.01499  0.64220  0.66869  1.0000 -0.101515566
C   C131      1.0  0.10714  0.83080  0.17134  1.0000 -0.1686040023
C   C132      1.0  0.10714  0.66920  0.67134  1.0000 -0.1686040023
C   C133      1.0  0.11042  0.75922  0.15352  1.0000 0.0715110861
C   C134      1.0  0.11042  0.74078  0.65352  1.0000 0.0715110861
C   C135      1.0  0.01793  0.71620  0.13113  1.0000 -0.1511497485
C   C136      1.0  0.01793  0.78380  0.63113  1.0000 -0.1511497485
C   C137      1.0  0.92580  0.74310  0.12850  1.0000 -0.0844369018
C   C138      1.0  0.92580  0.75690  0.62850  1.0000 -0.0844369018
C   C139      1.0  0.20975  0.73060  0.15715  1.0000 0.0648995108
C   C140      1.0  0.20975  0.76940  0.65715  1.0000 0.0715110861
C   C141      1.0  0.22400  0.65440  0.15470  1.0000 -0.1511497485
C   C142      1.0  0.22400  0.84560  0.65470  1.0000 -0.1511497485
C   C143      1.0  0.31349  0.62730  0.15629  1.0000 -0.101515566
C   C144      1.0  0.31349  0.87270  0.65629  1.0000 -0.101515566
C   C145      1.0  0.39106  0.67500  0.15986  1.0000 -0.0309855183
C   C146      1.0  0.39106  0.82500  0.65986  1.0000 -0.0309855183
C   C147      1.0  0.37855  0.75040  0.16315  1.0000 -0.0898518689
C   C148      1.0  0.37855  0.74960  0.66315  1.0000 -0.0898518689
C   C149      1.0  0.28736  0.77850  0.16016  1.0000 -0.1511497485
C   C150      1.0  0.28736  0.72150  0.66016  1.0000 -0.1511497485
C   C151      1.0  0.48862  0.64640  0.16122  1.0000 0.5894916248
C   C152      1.0  0.48862  0.85360  0.66122  1.0000 0.5894916248
C   C153      1.0  0.50136  0.86270  0.07546  1.0000 0.5980496
C   C154      1.0  0.50136  0.63730  0.57546  1.0000 0.5980496
C   C155      1.0  0.39390  0.86160  0.02550  1.0000 -0.0409235637
C   C156      1.0  0.39390  0.63840  0.52550  1.0000 -0.0409235637
C   C157      1.0  0.34974  0.92840  0.99864  1.0000 -0.1074351081
C   C158      1.0  0.34974  0.57160  0.49864  1.0000 -0.1074351081
C   C159      1.0  0.25126  0.92820  0.95216  1.0000 -0.1511497485
C   C160      1.0  0.25126  0.57180  0.45216  1.0000 -0.1511497485
C   C161      1.0  0.19603  0.86160  0.93063  1.0000 0.0715110861
C   C162      1.0  0.19603  0.63840  0.43063  1.0000 0.0715110861
C   C163      1.0  0.24157  0.79520  0.95777  1.0000 -0.1596374632
C   C164      1.0  0.24157  0.70480  0.45777  1.0000 -0.1596374632
C   C165      1.0  0.34020  0.79570  0.00550  1.0000 -0.1074351081
C   C166      1.0  0.34020  0.70430  0.50550  1.0000 -0.1074351081
C   C167      1.0  0.09262  0.86300  0.87872  1.0000 0.0715110861
C   C168      1.0  0.09262  0.63700  0.37872  1.0000 0.0715110861
C   C169      1.0  0.02641  0.92410  0.86531  1.0000 -0.1511497485
C   C170      1.0  0.02641  0.57590  0.36531  1.0000 -0.1511497485
C   C171      1.0  0.93116  0.92770  0.81646  1.0000 -0.101515566
C   C172      1.0  0.93116  0.57230  0.31646  1.0000 -0.101515566
C   C173      1.0  0.90211  0.86970  0.78041  1.0000 -0.0309855183
C   C174      1.0  0.90211  0.63030  0.28041  1.0000 -0.0309855183
C   C175      1.0  0.96760  0.80860  0.79290  1.0000 -0.0898518689
C   C176      1.0  0.96760  0.69140  0.29290  1.0000 -0.0898518689
C   C177      1.0  0.06081  0.80410  0.84211  1.0000 -0.1596374632
C   C178      1.0  0.06081  0.69590  0.34211  1.0000 -0.1596374632
C   C179      1.0  0.80262  0.87570  0.72632  1.0000 0.5980496
C   C180      1.0  0.80262  0.62430  0.22632  1.0000 0.5980496
C   C181      1.0  0.69246  0.85820  0.23546  1.0000 0.5980496
C   C182      1.0  0.69246  0.64180  0.73546  1.0000 0.5980496
C   C183      1.0  0.68186  0.85660  0.28426  1.0000 -0.0309855183
C   C184      1.0  0.68186  0.64340  0.78426  1.0000 -0.0309855183
C   C185      1.0  0.63247  0.91500  0.29457  1.0000 -0.101515566
C   C186      1.0  0.63247  0.58500  0.79457  1.0000 -0.101515566
C   C187      1.0  0.62117  0.91530  0.33937  1.0000 -0.1596374632
C   C188      1.0  0.62117  0.58470  0.83937  1.0000 -0.1596374632
C   C189      1.0  0.66212  0.85730  0.37632  1.0000 0.0715110861
C   C190      1.0  0.66212  0.64270  0.87632  1.0000 0.0715110861
C   C191      1.0  0.71016  0.79820  0.36636  1.0000 -0.1511497485
C   C192      1.0  0.71016  0.70180  0.86636  1.0000 -0.1511497485
C   C193      1.0  0.71969  0.79690  0.32049  1.0000 -0.0898518689
C   C194      1.0  0.71969  0.70310  0.82049  1.0000 -0.0898518689
C   C195      1.0  0.65400  0.86060  0.42590  1.0000 0.0715110861
C   C196      1.0  0.65400  0.63940  0.92590  1.0000 0.0715110861
C   C197      1.0  0.64988  0.92910  0.44728  1.0000 -0.1511497485
C   C198      1.0  0.64988  0.57090  0.94728  1.0000 -0.1511497485
C   C199      1.0  0.64014  0.93270  0.49274  1.0000 -0.101515566
C   C200      1.0  0.64014  0.56730  0.99274  1.0000 -0.101515566
C   C201      1.0  0.63302  0.86950  0.51722  1.0000 -0.0466853631
C   C202      1.0  0.63302  0.63050  0.01722  1.0000 -0.0466853631
C   C203      1.0  0.63905  0.80020  0.49665  1.0000 -0.101515566
C   C204      1.0  0.63905  0.69980  0.99665  1.0000 -0.101515566
C   C205      1.0  0.65007  0.79630  0.45177  1.0000 -0.1596374632
C   C206      1.0  0.65007  0.70370  0.95177  1.0000 -0.1596374632
C   C207      1.0  0.61771  0.87290  0.56461  1.0000 0.5894916248
C   C208      1.0  0.61771  0.62710  0.06461  1.0000 0.5894916248
N   N1        1.0  0.31797  0.54866  0.35027  1.0000 -0.2341782757
N   N2        1.0  0.31797  0.95134  0.85027  1.0000 -0.2341782757
N   N3        1.0  0.37398  0.93697  0.34928  1.0000 -0.2357830116
N   N4        1.0  0.37398  0.56303  0.84928  1.0000 -0.2357830116
N   N5        1.0  0.68203  0.04866  0.14973  1.0000 -0.2341782757
N   N6        1.0  0.68203  0.45134  0.64973  1.0000 -0.2341782757
N   N7        1.0  0.62602  0.43697  0.15072  1.0000 -0.2357830116
N   N8        1.0  0.62602  0.06303  0.65072  1.0000 -0.2357830116
O   O1        1.0  0.17351  0.40877  0.34122  1.0000 -0.541554735
O   O2        1.0  0.17351  0.09123  0.84122  1.0000 -0.541554735
O   O3        1.0  0.25618  0.30225  0.37675  1.0000 -0.5670779356
O   O4        1.0  0.25618  0.19775  0.87675  1.0000 -0.5670779356
O   O5        1.0  0.51263  0.07903  0.35307  1.0000 -0.5575349411
O   O6        1.0  0.51263  0.42097  0.85307  1.0000 -0.5575349411
O   O7        1.0  0.43188  0.18749  0.32162  1.0000 -0.5575349411
O   O8        1.0  0.43188  0.31251  0.82162  1.0000 -0.5575349411
O   O9        1.0  0.44015  0.41842  0.41895  1.0000 -0.5575349411
O   O10       1.0  0.44015  0.08158  0.91895  1.0000 -0.5575349411
O   O11       1.0  0.47428  0.31159  0.39063  1.0000 -0.5575349411
O   O12       1.0  0.47428  0.18841  0.89063  1.0000 -0.5575349411
O   O13       1.0  0.25552  0.43187  0.78062  1.0000 -0.5515189537
O   O14       1.0  0.25552  0.06813  0.28062  1.0000 -0.5515189537
O   O15       1.0  0.21591  0.32838  0.80943  1.0000 -0.5575349411
O   O16       1.0  0.21591  0.17162  0.30943  1.0000 -0.5575349411
O   O17       1.0  0.32669  0.41953  0.28839  1.0000 -0.5515189537
O   O18       1.0  0.32669  0.08047  0.78839  1.0000 -0.5515189537
O   O19       1.0  0.27534  0.30106  0.27677  1.0000 -0.5515189537
O   O20       1.0  0.27534  0.19894  0.77677  1.0000 -0.5515189537
O   O21       1.0  0.36885  0.43606  0.91355  1.0000 -0.5575349411
O   O22       1.0  0.36885  0.06394  0.41355  1.0000 -0.5575349411
O   O23       1.0  0.40807  0.31562  0.92067  1.0000 -0.5515189537
O   O24       1.0  0.40807  0.18438  0.42067  1.0000 -0.5515189537
O   O25       1.0  0.82649  0.90877  0.15878  1.0000 -0.541554735
O   O26       1.0  0.82649  0.59123  0.65878  1.0000 -0.541554735
O   O27       1.0  0.74382  0.80225  0.12325  1.0000 -0.5670779356
O   O28       1.0  0.74382  0.69775  0.62325  1.0000 -0.5670779356
O   O29       1.0  0.48737  0.57903  0.14693  1.0000 -0.5575349411
O   O30       1.0  0.48737  0.92097  0.64693  1.0000 -0.5575349411
O   O31       1.0  0.56812  0.68749  0.17838  1.0000 -0.5575349411
O   O32       1.0  0.56812  0.81251  0.67838  1.0000 -0.5575349411
O   O33       1.0  0.55985  0.91842  0.08105  1.0000 -0.5575349411
O   O34       1.0  0.55985  0.58158  0.58105  1.0000 -0.5575349411
O   O35       1.0  0.52572  0.81159  0.10937  1.0000 -0.5575349411
O   O36       1.0  0.52572  0.68841  0.60937  1.0000 -0.5575349411
O   O37       1.0  0.74448  0.93187  0.71938  1.0000 -0.5515189537
O   O38       1.0  0.74448  0.56813  0.21938  1.0000 -0.5515189537
O   O39       1.0  0.78409  0.82838  0.69057  1.0000 -0.5575349411
O   O40       1.0  0.78409  0.67162  0.19057  1.0000 -0.5575349411
O   O41       1.0  0.67331  0.91953  0.21161  1.0000 -0.5515189537
O   O42       1.0  0.67331  0.58047  0.71161  1.0000 -0.5515189537
O   O43       1.0  0.72466  0.80106  0.22323  1.0000 -0.5515189537
O   O44       1.0  0.72466  0.69894  0.72323  1.0000 -0.5575349411
O   O45       1.0  0.63115  0.93606  0.58645  1.0000 -0.5575349411
O   O46       1.0  0.63115  0.56394  0.08645  1.0000 -0.5575349411
O   O47       1.0  0.59193  0.81562  0.57933  1.0000 -0.5515189537
O   O48       1.0  0.59193  0.68438  0.07933  1.0000 -0.5515189537
