# DDEC6 charges by PACMAN v1.1 (https://github.com/mtap-research/PACMAN-charge/)
data_2003[Ce][stp]3[ASR]1
_chemical_formula_sum              "Ce2 H12 C18 O24"
_cell_length_a       10.288
_cell_length_b       10.288
_cell_length_c       8.9427
_cell_angle_alpha    90
_cell_angle_beta     90
_cell_angle_gamma    120

_symmetry_space_group_name_H-M    "P 1"
_symmetry_Int_Tables_number       1

loop_
  _symmetry_equiv_pos_as_xyz
  'x, y, z'

loop_
  _atom_site_type_symbol
  _atom_site_label
  _atom_site_symmetry_multiplicity
  _atom_site_fract_x
  _atom_site_fract_y
  _atom_site_fract_z
  _atom_site_occupancy
  _atom_site_charge
Ce  Ce1       1.0  0.66667  0.33333  0.04988  1.0000 2.0245752169
Ce  Ce2       1.0  0.33333  0.66667  0.95012  1.0000 2.0260517431
H   H1        1.0  0.52010  0.63520  0.43760  1.0000 0.1407799257
H   H2        1.0  0.36480  0.88490  0.43760  1.0000 0.1407799257
H   H3        1.0  0.11510  0.47990  0.43760  1.0000 0.1407799257
H   H4        1.0  0.47990  0.36480  0.56240  1.0000 0.1407799257
H   H5        1.0  0.63520  0.11510  0.56240  1.0000 0.1407799257
H   H6        1.0  0.88490  0.52010  0.56240  1.0000 0.1407799257
H   H7        1.0  0.37020  0.42910  0.27930  1.0000 0.1651123596
H   H8        1.0  0.57090  0.94110  0.27930  1.0000 0.1651123596
H   H9        1.0  0.05890  0.62980  0.27930  1.0000 0.1651123596
H   H10       1.0  0.62980  0.57090  0.72070  1.0000 0.1651123596
H   H11       1.0  0.42910  0.05890  0.72070  1.0000 0.1651123596
H   H12       1.0  0.94110  0.37020  0.72070  1.0000 0.1651123596
C   C1        1.0  0.55450  0.57980  0.15620  1.0000 0.6341081692
C   C2        1.0  0.42020  0.97470  0.15620  1.0000 0.6341081692
C   C3        1.0  0.02530  0.44550  0.15620  1.0000 0.6341081692
C   C4        1.0  0.44550  0.42020  0.84380  1.0000 0.6341081692
C   C5        1.0  0.57980  0.02530  0.84380  1.0000 0.6341081692
C   C6        1.0  0.97470  0.55450  0.84380  1.0000 0.6341081692
C   C7        1.0  0.53810  0.55030  0.43340  1.0000 0.1139590276
C   C8        1.0  0.44970  0.98780  0.43340  1.0000 0.1139590276
C   C9        1.0  0.01220  0.46190  0.43340  1.0000 0.1139590276
C   C10       1.0  0.46190  0.44970  0.56660  1.0000 0.1139590276
C   C11       1.0  0.55030  0.01220  0.56660  1.0000 0.1139590276
C   C12       1.0  0.98780  0.53810  0.56660  1.0000 0.1139590276
C   C13       1.0  0.47900  0.47010  0.28440  1.0000 0.0306023599
C   C14       1.0  0.52990  0.00890  0.28440  1.0000 0.0306023599
C   C15       1.0  0.99110  0.52100  0.28440  1.0000 0.0306023599
C   C16       1.0  0.52100  0.52990  0.71560  1.0000 0.0306023599
C   C17       1.0  0.47010  0.99110  0.71560  1.0000 0.0306023599
C   C18       1.0  0.00890  0.47900  0.71560  1.0000 0.0306023599
O   O1        1.0  0.69650  0.60760  0.44090  1.0000 -0.2775166051
O   O2        1.0  0.39240  0.08890  0.44090  1.0000 -0.2775166051
O   O3        1.0  0.91110  0.30350  0.44090  1.0000 -0.2775166051
O   O4        1.0  0.30350  0.39240  0.55910  1.0000 -0.2775166051
O   O5        1.0  0.60760  0.91110  0.55910  1.0000 -0.2775166051
O   O6        1.0  0.08890  0.69650  0.55910  1.0000 -0.2775166051
O   O7        1.0  0.64910  0.56630  0.07820  1.0000 -0.5433455474
O   O8        1.0  0.43370  0.08280  0.07820  1.0000 -0.5433455474
O   O9        1.0  0.91720  0.35090  0.07820  1.0000 -0.5433455474
O   O10       1.0  0.35090  0.43370  0.92180  1.0000 -0.5433455474
O   O11       1.0  0.56630  0.91720  0.92180  1.0000 -0.5433455474
O   O12       1.0  0.08280  0.64910  0.92180  1.0000 -0.5433455474
O   O13       1.0  0.51870  0.67820  0.13710  1.0000 -0.5909823345
O   O14       1.0  0.32180  0.84050  0.13710  1.0000 -0.5909823345
O   O15       1.0  0.15950  0.48130  0.13710  1.0000 -0.5909823345
O   O16       1.0  0.48130  0.32180  0.86290  1.0000 -0.5909823345
O   O17       1.0  0.67820  0.15950  0.86290  1.0000 -0.5909823345
O   O18       1.0  0.84050  0.51870  0.86290  1.0000 -0.5909823345
O   O19       1.0  0.51200  0.35100  0.26540  1.0000 -0.3478218483
O   O20       1.0  0.64900  0.16100  0.26540  1.0000 -0.3478218483
O   O21       1.0  0.83900  0.48800  0.26540  1.0000 -0.3478218483
O   O22       1.0  0.48800  0.64900  0.73460  1.0000 -0.3478218483
O   O23       1.0  0.35100  0.83900  0.73460  1.0000 -0.3478218483
O   O24       1.0  0.16100  0.51200  0.73460  1.0000 -0.3478218483
