# DDEC6 charges by PACMAN v1.1 (https://github.com/mtap-research/PACMAN-charge/)
data_2003[La][stp]3[ASR]1
_chemical_formula_sum              "La2 H12 C18 O24"
_cell_length_a       10.3426
_cell_length_b       10.3426
_cell_length_c       8.9709
_cell_angle_alpha    90
_cell_angle_beta     90
_cell_angle_gamma    120

_symmetry_space_group_name_H-M    "P 1"
_symmetry_Int_Tables_number       1

loop_
  _symmetry_equiv_pos_as_xyz
  'x, y, z'

loop_
  _atom_site_type_symbol
  _atom_site_label
  _atom_site_symmetry_multiplicity
  _atom_site_fract_x
  _atom_site_fract_y
  _atom_site_fract_z
  _atom_site_occupancy
  _atom_site_charge
La  La1       1.0  0.66667  0.33333  0.04936  1.0000 1.8379317741
La  La2       1.0  0.33333  0.66667  0.95064  1.0000 1.8379317741
H   H1        1.0  0.52080  0.88580  0.43670  1.0000 0.1388852368
H   H2        1.0  0.11420  0.63500  0.43670  1.0000 0.1388852368
H   H3        1.0  0.36500  0.47920  0.43670  1.0000 0.1388852368
H   H4        1.0  0.47920  0.11420  0.56330  1.0000 0.1388852368
H   H5        1.0  0.88580  0.36500  0.56330  1.0000 0.1388852368
H   H6        1.0  0.63500  0.52080  0.56330  1.0000 0.1388852368
H   H7        1.0  0.37150  0.94130  0.28010  1.0000 0.1625001649
H   H8        1.0  0.05870  0.43020  0.28010  1.0000 0.1625001649
H   H9        1.0  0.56980  0.62850  0.28010  1.0000 0.1625001649
H   H10       1.0  0.62850  0.05870  0.71990  1.0000 0.1625001649
H   H11       1.0  0.94130  0.56980  0.71990  1.0000 0.1625001649
H   H12       1.0  0.43020  0.37150  0.71990  1.0000 0.1625001649
C   C1        1.0  0.53830  0.98800  0.43280  1.0000 0.1092974539
C   C2        1.0  0.01200  0.55030  0.43280  1.0000 0.1092974539
C   C3        1.0  0.44970  0.46170  0.43280  1.0000 0.1092974539
C   C4        1.0  0.46170  0.01200  0.56720  1.0000 0.1092974539
C   C5        1.0  0.98800  0.44970  0.56720  1.0000 0.1092974539
C   C6        1.0  0.55030  0.53830  0.56720  1.0000 0.1092974539
C   C7        1.0  0.55480  0.97490  0.15730  1.0000 0.6271694322
C   C8        1.0  0.02510  0.57990  0.15730  1.0000 0.6271694322
C   C9        1.0  0.42010  0.44520  0.15730  1.0000 0.6271694322
C   C10       1.0  0.44520  0.02510  0.84270  1.0000 0.6271694322
C   C11       1.0  0.97490  0.42010  0.84270  1.0000 0.6271694322
C   C12       1.0  0.57990  0.55480  0.84270  1.0000 0.6271694322
C   C13       1.0  0.47960  0.00920  0.28510  1.0000 0.0179225744
C   C14       1.0  0.99080  0.47040  0.28510  1.0000 0.0179225744
C   C15       1.0  0.52960  0.52040  0.28510  1.0000 0.0179225744
C   C16       1.0  0.52040  0.99080  0.71490  1.0000 0.0179225744
C   C17       1.0  0.00920  0.52960  0.71490  1.0000 0.0179225744
C   C18       1.0  0.47040  0.47960  0.71490  1.0000 0.0179225744
O   O1        1.0  0.69620  0.08940  0.44130  1.0000 -0.2772273998
O   O2        1.0  0.91060  0.60680  0.44130  1.0000 -0.2772273998
O   O3        1.0  0.39320  0.30380  0.44130  1.0000 -0.2772273998
O   O4        1.0  0.30380  0.91060  0.55870  1.0000 -0.2772273998
O   O5        1.0  0.08940  0.39320  0.55870  1.0000 -0.2772273998
O   O6        1.0  0.60680  0.69620  0.55870  1.0000 -0.2772273998
O   O7        1.0  0.64860  0.08220  0.07950  1.0000 -0.5154384156
O   O8        1.0  0.91780  0.56640  0.07950  1.0000 -0.5154384156
O   O9        1.0  0.43360  0.35140  0.07950  1.0000 -0.5154384156
O   O10       1.0  0.35140  0.91780  0.92050  1.0000 -0.5154384156
O   O11       1.0  0.08220  0.43360  0.92050  1.0000 -0.5154384156
O   O12       1.0  0.56640  0.64860  0.92050  1.0000 -0.5154384156
O   O13       1.0  0.51960  0.84130  0.13840  1.0000 -0.5756807705
O   O14       1.0  0.15870  0.67830  0.13840  1.0000 -0.5756807705
O   O15       1.0  0.32170  0.48040  0.13840  1.0000 -0.5756807705
O   O16       1.0  0.48040  0.15870  0.86160  1.0000 -0.5756807705
O   O17       1.0  0.84130  0.32170  0.86160  1.0000 -0.5756807705
O   O18       1.0  0.67830  0.51960  0.86160  1.0000 -0.5756807705
O   O19       1.0  0.51130  0.16020  0.26600  1.0000 -0.3000722011
O   O20       1.0  0.83980  0.35110  0.26600  1.0000 -0.3000722011
O   O21       1.0  0.64890  0.48870  0.26600  1.0000 -0.3000722011
O   O22       1.0  0.48870  0.83980  0.73400  1.0000 -0.3000722011
O   O23       1.0  0.16020  0.64890  0.73400  1.0000 -0.3000722011
O   O24       1.0  0.35110  0.51130  0.73400  1.0000 -0.3000722011
