# DDEC6 charges by PACMAN v1.1 (https://github.com/mtap-research/PACMAN-charge/)
data_2003[Nd][stp]3[ASR]1
_chemical_formula_sum              "Nd2 H12 C18 O24"
_cell_length_a       10.2151
_cell_length_b       10.2151
_cell_length_c       8.9021
_cell_angle_alpha    90
_cell_angle_beta     90
_cell_angle_gamma    120

_symmetry_space_group_name_H-M    "P 1"
_symmetry_Int_Tables_number       1

loop_
  _symmetry_equiv_pos_as_xyz
  'x, y, z'

loop_
  _atom_site_type_symbol
  _atom_site_label
  _atom_site_symmetry_multiplicity
  _atom_site_fract_x
  _atom_site_fract_y
  _atom_site_fract_z
  _atom_site_occupancy
  _atom_site_charge
Nd  Nd1       1.0  0.66667  0.33333  0.05114  1.0000 2.062319094
Nd  Nd2       1.0  0.33333  0.66667  0.94886  1.0000 2.062319094
H   H1        1.0  0.51870  0.63550  0.43710  1.0000 0.1402345166
H   H2        1.0  0.36450  0.88320  0.43710  1.0000 0.1402345166
H   H3        1.0  0.11680  0.48130  0.43710  1.0000 0.1402345166
H   H4        1.0  0.48130  0.36450  0.56290  1.0000 0.1402345166
H   H5        1.0  0.63550  0.11680  0.56290  1.0000 0.1402345166
H   H6        1.0  0.88320  0.51870  0.56290  1.0000 0.1402345166
H   H7        1.0  0.36860  0.42880  0.27800  1.0000 0.1675557981
H   H8        1.0  0.57120  0.93980  0.27800  1.0000 0.1675557981
H   H9        1.0  0.06020  0.63140  0.27800  1.0000 0.1675557981
H   H10       1.0  0.63140  0.57120  0.72200  1.0000 0.1675557981
H   H11       1.0  0.42880  0.06020  0.72200  1.0000 0.1675557981
H   H12       1.0  0.93980  0.36860  0.72200  1.0000 0.1675557981
C   C1        1.0  0.55430  0.57960  0.15500  1.0000 0.6506522835
C   C2        1.0  0.42040  0.97470  0.15500  1.0000 0.6506522835
C   C3        1.0  0.02530  0.44570  0.15500  1.0000 0.6506522835
C   C4        1.0  0.44570  0.42040  0.84500  1.0000 0.6506522835
C   C5        1.0  0.57960  0.02530  0.84500  1.0000 0.6506522835
C   C6        1.0  0.97470  0.55430  0.84500  1.0000 0.6506522835
C   C7        1.0  0.53760  0.55050  0.43260  1.0000 0.1066985183
C   C8        1.0  0.44950  0.98710  0.43260  1.0000 0.1066985183
C   C9        1.0  0.01290  0.46240  0.43260  1.0000 0.1066985183
C   C10       1.0  0.46240  0.44950  0.56740  1.0000 0.1066985183
C   C11       1.0  0.55050  0.01290  0.56740  1.0000 0.1066985183
C   C12       1.0  0.98710  0.53760  0.56740  1.0000 0.1066985183
C   C13       1.0  0.47820  0.46980  0.28320  1.0000 0.0228991966
C   C14       1.0  0.53020  0.00840  0.28320  1.0000 0.0228991966
C   C15       1.0  0.99160  0.52180  0.28320  1.0000 0.0228991966
C   C16       1.0  0.52180  0.53020  0.71680  1.0000 0.0228991966
C   C17       1.0  0.46980  0.99160  0.71680  1.0000 0.0228991966
C   C18       1.0  0.00840  0.47820  0.71680  1.0000 0.0228991966
O   O1        1.0  0.69740  0.60960  0.44080  1.0000 -0.2687447875
O   O2        1.0  0.39040  0.08780  0.44080  1.0000 -0.2687447875
O   O3        1.0  0.91220  0.30260  0.44080  1.0000 -0.2687447875
O   O4        1.0  0.30260  0.39040  0.55920  1.0000 -0.2687447875
O   O5        1.0  0.60960  0.91220  0.55920  1.0000 -0.2687447875
O   O6        1.0  0.08780  0.69740  0.55920  1.0000 -0.2687447875
O   O7        1.0  0.65000  0.56600  0.07640  1.0000 -0.5501836598
O   O8        1.0  0.43400  0.08400  0.07640  1.0000 -0.5501836598
O   O9        1.0  0.91600  0.35000  0.07640  1.0000 -0.5501836598
O   O10       1.0  0.35000  0.43400  0.92360  1.0000 -0.5501836598
O   O11       1.0  0.56600  0.91600  0.92360  1.0000 -0.5501836598
O   O12       1.0  0.08400  0.65000  0.92360  1.0000 -0.5501836598
O   O13       1.0  0.51750  0.67840  0.13540  1.0000 -0.6176719725
O   O14       1.0  0.32160  0.83910  0.13540  1.0000 -0.6176719725
O   O15       1.0  0.16090  0.48250  0.13540  1.0000 -0.6176719725
O   O16       1.0  0.48250  0.32160  0.86460  1.0000 -0.6176719725
O   O17       1.0  0.67840  0.16090  0.86460  1.0000 -0.6176719725
O   O18       1.0  0.83910  0.51750  0.86460  1.0000 -0.6176719725
O   O19       1.0  0.51120  0.34960  0.26330  1.0000 -0.3388795912
O   O20       1.0  0.65040  0.16160  0.26330  1.0000 -0.3388795912
O   O21       1.0  0.83840  0.48880  0.26330  1.0000 -0.3388795912
O   O22       1.0  0.48880  0.65040  0.73670  1.0000 -0.3388795912
O   O23       1.0  0.34960  0.83840  0.73670  1.0000 -0.3388795912
O   O24       1.0  0.16160  0.51120  0.73670  1.0000 -0.3388795912
