# DDEC6 charges by PACMAN v1.1 (https://github.com/mtap-research/PACMAN-charge/)
data_INOVEN_ASR_pacman
_symmetry_space_group_name_H-M   'P 1'
_cell_length_a   16.03720000
_cell_length_b   16.03720000
_cell_length_c   13.61590000
_cell_angle_alpha   83.76600000
_cell_angle_beta   96.23400000
_cell_angle_gamma   126.32800000
_symmetry_Int_Tables_number   1
_chemical_formula_structural   GdH14C18N3O7
_chemical_formula_sum   'Gd4 H56 C72 N12 O28'
_cell_volume   2800.29570539
_cell_formula_units_Z   4
loop_
 _symmetry_equiv_pos_site_id
 _symmetry_equiv_pos_as_xyz
  1  'x, y, z'
loop_
 _atom_site_type_symbol
 _atom_site_label
 _atom_site_symmetry_multiplicity
 _atom_site_fract_x
 _atom_site_fract_y
 _atom_site_fract_z
 _atom_site_occupancy
 _atom_site_charge
Gd  Gd1  1  0.97415000  0.60795000  0.46562000  1.0 1.9661698537
Gd  Gd2  1  0.60795000  0.97415000  0.03438000  1.0 1.9661698537
Gd  Gd3  1  0.02585000  0.39205000  0.53438000  1.0 1.9661698537
Gd  Gd4  1  0.39205000  0.02585000  0.96562000  1.0 1.9640310007
H  H1  1  0.81230000  0.87350000  0.90640000  1.0 0.1218344504
H  H2  1  0.87350000  0.81230000  0.59360000  1.0 0.1218344504
H  H3  1  0.18770000  0.12650000  0.09360000  1.0 0.1218344504
H  H4  1  0.12650000  0.18770000  0.40640000  1.0 0.1218344504
H  H5  1  0.52100000  0.63200000  0.95570000  1.0 0.1218344504
H  H6  1  0.63200000  0.52100000  0.54430000  1.0 0.1218344504
H  H7  1  0.47900000  0.36800000  0.04430000  1.0 0.1218344504
H  H8  1  0.36800000  0.47900000  0.45570000  1.0 0.1218344504
H  H9  1  0.61450000  0.29730000  0.92600000  1.0 0.1430032002
H  H10  1  0.29730000  0.61450000  0.57400000  1.0 0.1430032002
H  H11  1  0.38550000  0.70270000  0.07400000  1.0 0.1430032002
H  H12  1  0.70270000  0.38550000  0.42600000  1.0 0.1430032002
H  H13  1  0.79970000  0.26650000  0.78300000  1.0 0.1218344504
H  H14  1  0.26650000  0.79970000  0.71700000  1.0 0.1218344504
H  H15  1  0.20030000  0.73350000  0.21700000  1.0 0.1218344504
H  H16  1  0.73350000  0.20030000  0.28300000  1.0 0.1218344504
H  H17  1  0.55110000  0.52090000  0.90340000  1.0 0.1145589212
H  H18  1  0.52090000  0.55110000  0.59660000  1.0 0.1145589212
H  H19  1  0.44890000  0.47910000  0.09660000  1.0 0.1145589212
H  H20  1  0.47910000  0.44890000  0.40340000  1.0 0.1145589212
H  H21  1  0.80420000  0.51880000  0.73020000  1.0 0.1218344504
H  H22  1  0.51880000  0.80420000  0.76980000  1.0 0.1218344504
H  H23  1  0.19580000  0.48120000  0.26980000  1.0 0.1218344504
H  H24  1  0.48120000  0.19580000  0.23020000  1.0 0.1218344504
H  H25  1  0.84040000  0.76000000  0.85180000  1.0 0.1218344504
H  H26  1  0.76000000  0.84040000  0.64820000  1.0 0.1218344504
H  H27  1  0.15960000  0.24000000  0.14820000  1.0 0.1218344504
H  H28  1  0.24000000  0.15960000  0.35180000  1.0 0.1218344504
H  H29  1  0.17850000  0.82150000  0.40460000  1.0 0.1645901176
H  H30  1  0.82150000  0.17850000  0.09540000  1.0 0.1645901176
H  H31  1  0.82150000  0.17850000  0.59540000  1.0 0.1645901176
H  H32  1  0.17850000  0.82150000  0.90460000  1.0 0.1645901176
H  H33  1  0.06270000  0.82130000  0.21180000  1.0 0.1276574861
H  H34  1  0.82130000  0.06270000  0.28820000  1.0 0.1276574861
H  H35  1  0.93730000  0.17870000  0.78820000  1.0 0.1276574861
H  H36  1  0.17870000  0.93730000  0.71180000  1.0 0.1276574861
H  H37  1  0.11360000  0.92680000  0.14920000  1.0 0.1276574861
H  H38  1  0.92680000  0.11360000  0.35080000  1.0 0.1276574861
H  H39  1  0.88640000  0.07320000  0.85080000  1.0 0.1276574861
H  H40  1  0.07320000  0.88640000  0.64920000  1.0 0.1276574861
H  H41  1  0.16880000  0.87160000  0.16460000  1.0 0.1218344504
H  H42  1  0.87160000  0.16880000  0.33540000  1.0 0.1218344504
H  H43  1  0.83120000  0.12840000  0.83540000  1.0 0.1218344504
H  H44  1  0.12840000  0.83120000  0.66460000  1.0 0.1218344504
H  H45  1  0.32070000  0.98570000  0.35620000  1.0 0.1145589212
H  H46  1  0.98570000  0.32070000  0.14380000  1.0 0.1145589212
H  H47  1  0.67930000  0.01430000  0.64380000  1.0 0.1145589212
H  H48  1  0.01430000  0.67930000  0.85620000  1.0 0.1145589212
H  H49  1  0.30390000  0.93350000  0.25800000  1.0 0.1276574861
H  H50  1  0.93350000  0.30390000  0.24200000  1.0 0.1276574861
H  H51  1  0.69610000  0.06650000  0.74200000  1.0 0.1276574861
H  H52  1  0.06650000  0.69610000  0.75800000  1.0 0.1276574861
H  H53  1  0.33760000  0.04760000  0.25410000  1.0 0.1276574861
H  H54  1  0.04760000  0.33760000  0.24590000  1.0 0.1276574861
H  H55  1  0.66240000  0.95240000  0.74590000  1.0 0.1276574861
H  H56  1  0.95240000  0.66240000  0.75410000  1.0 0.1276574861
C  C1  1  0.89120000  0.43920000  0.66610000  1.0 0.6228180724
C  C2  1  0.43920000  0.89120000  0.83390000  1.0 0.6228180724
C  C3  1  0.10880000  0.56080000  0.33390000  1.0 0.6228180724
C  C4  1  0.56080000  0.10880000  0.16610000  1.0 0.6228180724
C  C5  1  0.64260000  0.83520000  0.97310000  1.0 0.5518545108
C  C6  1  0.83520000  0.64260000  0.52690000  1.0 0.5518545108
C  C7  1  0.35740000  0.16480000  0.02690000  1.0 0.5518545108
C  C8  1  0.16480000  0.35740000  0.47310000  1.0 0.5518545108
C  C9  1  0.66050000  0.76190000  0.93590000  1.0 -0.0129668671
C  C10  1  0.76190000  0.66050000  0.56410000  1.0 -0.0129668671
C  C11  1  0.33950000  0.23810000  0.06410000  1.0 -0.0129668671
C  C12  1  0.23810000  0.33950000  0.43590000  1.0 -0.0129668671
C  C13  1  0.75950000  0.80290000  0.90540000  1.0 -0.093401513
C  C14  1  0.80290000  0.75950000  0.59460000  1.0 -0.093401513
C  C15  1  0.24050000  0.19710000  0.09460000  1.0 -0.093401513
C  C16  1  0.19710000  0.24050000  0.40540000  1.0 -0.093401513
C  C17  1  0.58620000  0.65860000  0.93480000  1.0 -0.093401513
C  C18  1  0.65860000  0.58620000  0.56520000  1.0 -0.093401513
C  C19  1  0.41380000  0.34140000  0.06520000  1.0 -0.093401513
C  C20  1  0.34140000  0.41380000  0.43480000  1.0 -0.093401513
C  C21  1  0.65730000  0.16210000  0.91690000  1.0 0.6083016592
C  C22  1  0.16210000  0.65730000  0.58310000  1.0 0.6083016592
C  C23  1  0.34270000  0.83790000  0.08310000  1.0 0.6083016592
C  C24  1  0.83790000  0.34270000  0.41690000  1.0 0.6083016592
C  C25  1  0.69830000  0.26470000  0.86190000  1.0 -0.0129668671
C  C26  1  0.26470000  0.69830000  0.63810000  1.0 -0.0129668671
C  C27  1  0.30170000  0.73530000  0.13810000  1.0 -0.0129668671
C  C28  1  0.73530000  0.30170000  0.36190000  1.0 -0.0129668671
C  C29  1  0.66520000  0.32280000  0.88100000  1.0 -0.1533521031
C  C30  1  0.32280000  0.66520000  0.61900000  1.0 -0.1533521031
C  C31  1  0.33480000  0.67720000  0.11900000  1.0 -0.1533521031
C  C32  1  0.67720000  0.33480000  0.38100000  1.0 -0.1533521031
C  C33  1  0.77460000  0.30400000  0.79410000  1.0 -0.1192021528
C  C34  1  0.30400000  0.77460000  0.70590000  1.0 -0.1192021528
C  C35  1  0.22540000  0.69600000  0.20590000  1.0 -0.1192021528
C  C36  1  0.69600000  0.22540000  0.29410000  1.0 -0.1192021528
C  C37  1  0.81290000  0.39850000  0.74340000  1.0 -0.0129668671
C  C38  1  0.39850000  0.81290000  0.75660000  1.0 -0.0129668671
C  C39  1  0.18710000  0.60150000  0.25660000  1.0 -0.0129668671
C  C40  1  0.60150000  0.18710000  0.24340000  1.0 -0.0129668671
C  C41  1  0.70700000  0.41820000  0.83360000  1.0 0.1470561596
C  C42  1  0.41820000  0.70700000  0.66640000  1.0 0.1470561596
C  C43  1  0.29300000  0.58180000  0.16640000  1.0 0.1470561596
C  C44  1  0.58180000  0.29300000  0.33360000  1.0 0.1470561596
C  C45  1  0.69910000  0.63050000  0.87400000  1.0 0.1470561596
C  C46  1  0.63050000  0.69910000  0.62600000  1.0 0.1470561596
C  C47  1  0.30090000  0.36950000  0.12600000  1.0 0.1470561596
C  C48  1  0.36950000  0.30090000  0.37400000  1.0 0.1470561596
C  C49  1  0.60370000  0.59170000  0.90390000  1.0 -0.161632332
C  C50  1  0.59170000  0.60370000  0.59610000  1.0 -0.161632332
C  C51  1  0.39630000  0.40830000  0.09610000  1.0 -0.161632332
C  C52  1  0.40830000  0.39630000  0.40390000  1.0 -0.161632332
C  C53  1  0.77870000  0.45510000  0.76380000  1.0 -0.1533521031
C  C54  1  0.45510000  0.77870000  0.73620000  1.0 -0.1533521031
C  C55  1  0.22130000  0.54490000  0.23620000  1.0 -0.1533521031
C  C56  1  0.54490000  0.22130000  0.26380000  1.0 -0.1533521031
C  C57  1  0.77580000  0.73440000  0.87370000  1.0 -0.161632332
C  C58  1  0.73440000  0.77580000  0.62630000  1.0 -0.161632332
C  C59  1  0.22420000  0.26560000  0.12630000  1.0 -0.161632332
C  C60  1  0.26560000  0.22420000  0.37370000  1.0 -0.161632332
C  C61  1  0.12940000  0.82740000  0.36860000  1.0 0.1685930314
C  C62  1  0.82740000  0.12940000  0.13140000  1.0 0.1685930314
C  C63  1  0.87060000  0.17260000  0.63140000  1.0 0.1685930314
C  C64  1  0.17260000  0.87060000  0.86860000  1.0 0.1685930314
C  C65  1  0.12710000  0.88550000  0.19500000  1.0 -0.3023355705
C  C66  1  0.88550000  0.12710000  0.30500000  1.0 -0.3023355705
C  C67  1  0.87290000  0.11450000  0.80500000  1.0 -0.3023355705
C  C68  1  0.11450000  0.87290000  0.69500000  1.0 -0.3023355705
C  C69  1  0.29690000  0.98050000  0.28780000  1.0 -0.3579064188
C  C70  1  0.98050000  0.29690000  0.21220000  1.0 -0.3579064188
C  C71  1  0.70310000  0.01950000  0.71220000  1.0 -0.3579064188
C  C72  1  0.01950000  0.70310000  0.78780000  1.0 -0.3579064188
N  N1  1  0.67040000  0.47540000  0.86280000  1.0 -0.0818110285
N  N2  1  0.47540000  0.67040000  0.63720000  1.0 -0.0818110285
N  N3  1  0.32960000  0.52460000  0.13720000  1.0 -0.0818110285
N  N4  1  0.52460000  0.32960000  0.36280000  1.0 -0.0818110285
N  N5  1  0.73140000  0.56960000  0.84420000  1.0 -0.1366033507
N  N6  1  0.56960000  0.73140000  0.65580000  1.0 -0.1366033507
N  N7  1  0.26860000  0.43040000  0.15580000  1.0 -0.1366033507
N  N8  1  0.43040000  0.26860000  0.34420000  1.0 -0.1366033507
N  N9  1  0.17930000  0.93870000  0.28000000  1.0 0.0262077451
N  N10  1  0.93870000  0.17930000  0.22000000  1.0 0.0262077451
N  N11  1  0.82070000  0.06130000  0.72000000  1.0 0.0262077451
N  N12  1  0.06130000  0.82070000  0.78000000  1.0 0.0262077451
O  O1  1  0.92530000  0.52630000  0.62630000  1.0 -0.6221117554
O  O2  1  0.52630000  0.92530000  0.87370000  1.0 -0.6221117554
O  O3  1  0.07470000  0.47370000  0.37370000  1.0 -0.6221117554
O  O4  1  0.47370000  0.07470000  0.12630000  1.0 -0.6221117554
O  O5  1  0.91691000  0.38329000  0.64850000  1.0 -0.6412603063
O  O6  1  0.38329000  0.91691000  0.85150000  1.0 -0.6412603063
O  O7  1  0.08309000  0.61671000  0.35150000  1.0 -0.6412603063
O  O8  1  0.61671000  0.08309000  0.14850000  1.0 -0.6412603063
O  O9  1  0.71100000  0.93060000  0.96400000  1.0 -0.6103521389
O  O10  1  0.93060000  0.71100000  0.53600000  1.0 -0.6103521389
O  O11  1  0.28900000  0.06940000  0.03600000  1.0 -0.6103521389
O  O12  1  0.06940000  0.28900000  0.46400000  1.0 -0.6103521389
O  O13  1  0.55910000  0.79690000  0.01240000  1.0 -0.6221117554
O  O14  1  0.79690000  0.55910000  0.48760000  1.0 -0.6221117554
O  O15  1  0.44090000  0.20310000  0.98760000  1.0 -0.6221117554
O  O16  1  0.20310000  0.44090000  0.51240000  1.0 -0.6221117554
O  O17  1  0.71391000  0.13129000  0.93000000  1.0 -0.6103521389
O  O18  1  0.13129000  0.71391000  0.57000000  1.0 -0.6103521389
O  O19  1  0.28609000  0.86871000  0.07000000  1.0 -0.6103521389
O  O20  1  0.86871000  0.28609000  0.43000000  1.0 -0.6103521389
O  O21  1  0.56850000  0.10990000  0.95030000  1.0 -0.708845119
O  O22  1  0.10990000  0.56850000  0.54970000  1.0 -0.708845119
O  O23  1  0.43150000  0.89010000  0.04970000  1.0 -0.708845119
O  O24  1  0.89010000  0.43150000  0.45030000  1.0 -0.708845119
O  O25  1  0.05970000  0.77530000  0.38200000  1.0 -0.3473060532
O  O26  1  0.77530000  0.05970000  0.11800000  1.0 -0.3473060532
O  O27  1  0.94030000  0.22470000  0.61800000  1.0 -0.3473060532
O  O28  1  0.22470000  0.94030000  0.88200000  1.0 -0.3473060532
