# DDEC6 charges by PACMAN v1.1 (https://github.com/mtap-research/PACMAN-charge/)
data_2004[Cu][asf]3[ASR]1
_chemical_formula_sum              "Cu8 H48 C48 Br8 N16"
_cell_length_a       14.0313
_cell_length_b       14.0313
_cell_length_c       14.0313
_cell_angle_alpha    101.632
_cell_angle_beta     101.632
_cell_angle_gamma    126.638

_symmetry_space_group_name_H-M    "P 1"
_symmetry_Int_Tables_number       1

loop_
  _symmetry_equiv_pos_as_xyz
  'x, y, z'

loop_
  _atom_site_type_symbol
  _atom_site_label
  _atom_site_symmetry_multiplicity
  _atom_site_fract_x
  _atom_site_fract_y
  _atom_site_fract_z
  _atom_site_occupancy
  _atom_site_charge
Cu  Cu1       1.0  0.34790  0.34890  0.52362  1.0000 0.2790479659
Cu  Cu2       1.0  0.82528  0.82428  0.47638  1.0000 0.2790479659
Cu  Cu3       1.0  0.07428  0.09790  0.49900  1.0000 0.2790479659
Cu  Cu4       1.0  0.59890  0.57528  0.50100  1.0000 0.2790479659
Cu  Cu5       1.0  0.34790  0.82428  0.99900  1.0000 0.2790479659
Cu  Cu6       1.0  0.82528  0.34890  0.00100  1.0000 0.2790479659
Cu  Cu7       1.0  0.07428  0.57528  0.97638  1.0000 0.2790479659
Cu  Cu8       1.0  0.59890  0.09790  0.02362  1.0000 0.2790479659
H   H1        1.0  0.87840  0.64000  0.60800  1.0000 0.1360261886
H   H2        1.0  0.03200  0.27040  0.39200  1.0000 0.1360261886
H   H3        1.0  0.52040  0.62840  0.73840  1.0000 0.1360261886
H   H4        1.0  0.89000  0.78200  0.26160  1.0000 0.1360261886
H   H5        1.0  0.87840  0.27040  0.23840  1.0000 0.1360261886
H   H6        1.0  0.03200  0.64000  0.76160  1.0000 0.1360261886
H   H7        1.0  0.52040  0.78200  0.89200  1.0000 0.1360261886
H   H8        1.0  0.89000  0.62840  0.10800  1.0000 0.1360261886
H   H9        1.0  0.85390  0.73010  0.65380  1.0000 0.1360261886
H   H10       1.0  0.07630  0.20010  0.34620  1.0000 0.1360261886
H   H11       1.0  0.45010  0.60390  0.62380  1.0000 0.1360261886
H   H12       1.0  0.98010  0.82630  0.37620  1.0000 0.1360261886
H   H13       1.0  0.85390  0.20010  0.12380  1.0000 0.1360261886
H   H14       1.0  0.07630  0.73010  0.87620  1.0000 0.1360261886
H   H15       1.0  0.45010  0.82630  0.84620  1.0000 0.1360261886
H   H16       1.0  0.98010  0.60390  0.15380  1.0000 0.1360261886
H   H17       1.0  0.06130  0.81120  0.74990  1.0000 0.1160992681
H   H18       1.0  0.06130  0.31140  0.25010  1.0000 0.1160992681
H   H19       1.0  0.56140  0.81130  0.75010  1.0000 0.1160992681
H   H20       1.0  0.06120  0.81130  0.24990  1.0000 0.1160992681
H   H21       1.0  0.98670  0.80600  0.81930  1.0000 0.1096467382
H   H22       1.0  0.98670  0.16740  0.18070  1.0000 0.1096467382
H   H23       1.0  0.41740  0.73670  0.68070  1.0000 0.1096467382
H   H24       1.0  0.05600  0.73670  0.31930  1.0000 0.1044245063
H   H25       1.0  0.39040  0.31110  0.74910  1.0000 0.1317772511
H   H26       1.0  0.56200  0.64130  0.25090  1.0000 0.1317772511
H   H27       1.0  0.89130  0.14040  0.57930  1.0000 0.1317772511
H   H28       1.0  0.56110  0.31200  0.42070  1.0000 0.1317772511
H   H29       1.0  0.39040  0.64130  0.07930  1.0000 0.1317772511
H   H30       1.0  0.56200  0.31110  0.92070  1.0000 0.1317772511
H   H31       1.0  0.89130  0.31200  0.75090  1.0000 0.1317772511
H   H32       1.0  0.56110  0.14040  0.24910  1.0000 0.1317772511
H   H33       1.0  0.34350  0.20430  0.64320  1.0000 0.1317772511
H   H34       1.0  0.56110  0.70030  0.35680  1.0000 0.1317772511
H   H35       1.0  0.95030  0.09350  0.63920  1.0000 0.1317772511
H   H36       1.0  0.45430  0.31110  0.36080  1.0000 0.1317772511
H   H37       1.0  0.34350  0.70030  0.13920  1.0000 0.1317772511
H   H38       1.0  0.56110  0.20430  0.86080  1.0000 0.1317772511
H   H39       1.0  0.95030  0.31110  0.85680  1.0000 0.1317772511
H   H40       1.0  0.45430  0.09350  0.14320  1.0000 0.1317772511
H   H41       1.0  0.37350  0.16740  0.79390  1.0000 0.1096467382
H   H42       1.0  0.37350  0.57960  0.20610  1.0000 0.1096467382
H   H43       1.0  0.82960  0.12350  0.70610  1.0000 0.1096467382
H   H44       1.0  0.41740  0.12350  0.29390  1.0000 0.1096467382
H   H45       1.0  0.41970  0.13360  0.71390  1.0000 0.1096467382
H   H46       1.0  0.41970  0.70580  0.28610  1.0000 0.1096467382
H   H47       1.0  0.95580  0.16970  0.78610  1.0000 0.1096467382
H   H48       1.0  0.38360  0.16970  0.21390  1.0000 0.1096467382
C   C1        1.0  0.75350  0.56920  0.68010  1.0000 0.1866278387
C   C2        1.0  0.88910  0.07340  0.31990  1.0000 0.1866278387
C   C3        1.0  0.32340  0.50350  0.68430  1.0000 0.1866278387
C   C4        1.0  0.81920  0.63910  0.31570  1.0000 0.1866278387
C   C5        1.0  0.75350  0.07340  0.18430  1.0000 0.1866278387
C   C6        1.0  0.88910  0.56920  0.81570  1.0000 0.1866278387
C   C7        1.0  0.32340  0.63910  0.81990  1.0000 0.1866278387
C   C8        1.0  0.81920  0.50350  0.18010  1.0000 0.1866278387
C   C9        1.0  0.76830  0.52310  0.75480  1.0000 -0.0405912503
C   C10       1.0  0.76830  0.01350  0.24520  1.0000 -0.0405912503
C   C11       1.0  0.26350  0.51830  0.74520  1.0000 -0.0405912503
C   C12       1.0  0.77310  0.51830  0.25480  1.0000 -0.0405912503
C   C13       1.0  0.65840  0.42210  0.76370  1.0000 -0.0602307395
C   C14       1.0  0.65840  0.89470  0.23630  1.0000 -0.0602307395
C   C15       1.0  0.14470  0.40840  0.73630  1.0000 -0.0602307395
C   C16       1.0  0.67210  0.40840  0.26370  1.0000 -0.0602307395
C   C17       1.0  0.53590  0.37350  0.69580  1.0000 0.2233341931
C   C18       1.0  0.67770  0.84010  0.30420  1.0000 0.2233341931
C   C19       1.0  0.09010  0.28590  0.66240  1.0000 0.2233341931
C   C20       1.0  0.62350  0.42770  0.33760  1.0000 0.2233341931
C   C21       1.0  0.53590  0.84010  0.16240  1.0000 0.2233341931
C   C22       1.0  0.67770  0.37350  0.83760  1.0000 0.2233341931
C   C23       1.0  0.09010  0.42770  0.80420  1.0000 0.2233341931
C   C24       1.0  0.62350  0.28590  0.19580  1.0000 0.2233341931
C   C25       1.0  0.86810  0.67430  0.66760  1.0000 -0.2584649772
C   C26       1.0  0.00670  0.20050  0.33240  1.0000 -0.2584649772
C   C27       1.0  0.45050  0.61810  0.69380  1.0000 -0.2584649772
C   C28       1.0  0.92430  0.75670  0.30620  1.0000 -0.2584649772
C   C29       1.0  0.86810  0.20050  0.19380  1.0000 -0.2584649772
C   C30       1.0  0.00670  0.67430  0.80620  1.0000 -0.2584649772
C   C31       1.0  0.45050  0.75670  0.83240  1.0000 -0.2584649772
C   C32       1.0  0.92430  0.61810  0.16760  1.0000 -0.2584649772
C   C33       1.0  0.98820  0.75330  0.76510  1.0000 -0.0993936473
C   C34       1.0  0.98820  0.22310  0.23490  1.0000 -0.0993936473
C   C35       1.0  0.47310  0.73820  0.73490  1.0000 -0.0993936473
C   C36       1.0  0.00330  0.73820  0.26510  1.0000 -0.0993936473
C   C37       1.0  0.41500  0.27000  0.71120  1.0000 -0.2700962425
C   C38       1.0  0.55880  0.70380  0.28880  1.0000 -0.2700962425
C   C39       1.0  0.95380  0.16500  0.64500  1.0000 -0.2700962425
C   C40       1.0  0.52000  0.30880  0.35500  1.0000 -0.2700962425
C   C41       1.0  0.41500  0.70380  0.14500  1.0000 -0.2700962425
C   C42       1.0  0.55880  0.27000  0.85500  1.0000 -0.2700962425
C   C43       1.0  0.95380  0.30880  0.78880  1.0000 -0.2700962425
C   C44       1.0  0.52000  0.16500  0.21120  1.0000 -0.2700962425
C   C45       1.0  0.43900  0.20500  0.76600  1.0000 -0.0878032298
C   C46       1.0  0.43900  0.67300  0.23400  1.0000 -0.0878032298
C   C47       1.0  0.92300  0.18900  0.73400  1.0000 -0.0878032298
C   C48       1.0  0.45500  0.18900  0.26600  1.0000 -0.0878032298
Br  Br1       1.0  0.36747  0.45294  0.39761  1.0000 -0.4707128332
Br  Br2       1.0  0.05533  0.96986  0.60239  1.0000 -0.4707128332
Br  Br3       1.0  0.21986  0.11747  0.41453  1.0000 -0.4707128332
Br  Br4       1.0  0.70294  0.80533  0.58547  1.0000 -0.4707128332
Br  Br5       1.0  0.36747  0.96986  0.91453  1.0000 -0.4707128332
Br  Br6       1.0  0.05533  0.45294  0.08547  1.0000 -0.4707128332
Br  Br7       1.0  0.21986  0.80533  0.10239  1.0000 -0.4707128332
Br  Br8       1.0  0.70294  0.11747  0.89761  1.0000 -0.4707128332
N   N1        1.0  0.52540  0.42120  0.62680  1.0000 -0.1476605833
N   N2        1.0  0.79440  0.89860  0.37320  1.0000 -0.1476605833
N   N3        1.0  0.14860  0.27540  0.60420  1.0000 -0.1476605833
N   N4        1.0  0.67120  0.54440  0.39580  1.0000 -0.1476605833
N   N5        1.0  0.52540  0.89860  0.10420  1.0000 -0.1476605833
N   N6        1.0  0.79440  0.42120  0.89580  1.0000 -0.1476605833
N   N7        1.0  0.14860  0.54440  0.87320  1.0000 -0.1476605833
N   N8        1.0  0.67120  0.27540  0.12680  1.0000 -0.1476605833
N   N9        1.0  0.63440  0.51930  0.61710  1.0000 -0.1555397697
N   N10       1.0  0.90220  0.01730  0.38290  1.0000 -0.1555397697
N   N11       1.0  0.26730  0.38440  0.61510  1.0000 -0.1555397697
N   N12       1.0  0.76930  0.65220  0.38490  1.0000 -0.1555397697
N   N13       1.0  0.63440  0.01730  0.11510  1.0000 -0.1555397697
N   N14       1.0  0.90220  0.51930  0.88490  1.0000 -0.1555397697
N   N15       1.0  0.26730  0.65220  0.88290  1.0000 -0.1555397697
N   N16       1.0  0.76930  0.38440  0.11710  1.0000 -0.1555397697
