# DDEC6 charges by PACMAN v1.1 (https://github.com/mtap-research/PACMAN-charge/)
data_2011[V][bpq]3[ASR]4
_chemical_formula_sum              "V4 H16 C32 O20"
_cell_length_a       6.7884
_cell_length_b       13.2305
_cell_length_c       16.6357
_cell_angle_alpha    90
_cell_angle_beta     90
_cell_angle_gamma    90

_symmetry_space_group_name_H-M    "P 1"
_symmetry_Int_Tables_number       1

loop_
  _symmetry_equiv_pos_as_xyz
  'x, y, z'

loop_
  _atom_site_type_symbol
  _atom_site_label
  _atom_site_symmetry_multiplicity
  _atom_site_fract_x
  _atom_site_fract_y
  _atom_site_fract_z
  _atom_site_occupancy
  _atom_site_charge
V   V1        1.0  0.56123  0.73539  0.50055  1.0000 1.8064806795
V   V2        1.0  0.93877  0.26461  0.00055  1.0000 1.8064806795
V   V3        1.0  0.43877  0.23539  0.99945  1.0000 1.8064806795
V   V4        1.0  0.06123  0.76461  0.49945  1.0000 1.8064806795
H   H1        1.0  0.45050  0.01670  0.18120  1.0000 0.1298539161
H   H2        1.0  0.04950  0.98330  0.68120  1.0000 0.1298539161
H   H3        1.0  0.54950  0.51670  0.31880  1.0000 0.1298539161
H   H4        1.0  0.95050  0.48330  0.81880  1.0000 0.1298539161
H   H5        1.0  0.46930  0.91300  0.29180  1.0000 0.1298539161
H   H6        1.0  0.03070  0.08700  0.79180  1.0000 0.1298539161
H   H7        1.0  0.53070  0.41300  0.20820  1.0000 0.1298539161
H   H8        1.0  0.96930  0.58700  0.70820  1.0000 0.1298539161
H   H9        1.0  0.03310  0.06440  0.19280  1.0000 0.1298539161
H   H10       1.0  0.46690  0.93560  0.69280  1.0000 0.1298539161
H   H11       1.0  0.96690  0.56440  0.30720  1.0000 0.1298539161
H   H12       1.0  0.53310  0.43560  0.80720  1.0000 0.1298539161
H   H13       1.0  0.05170  0.96070  0.30430  1.0000 0.1298539161
H   H14       1.0  0.44830  0.03930  0.80430  1.0000 0.1298539161
H   H15       1.0  0.94830  0.46070  0.19570  1.0000 0.1298539161
H   H16       1.0  0.55170  0.53930  0.69570  1.0000 0.1298539161
C   C1        1.0  0.72720  0.12200  0.10668  1.0000 0.6169737016
C   C2        1.0  0.77280  0.87800  0.60668  1.0000 0.6169737016
C   C3        1.0  0.27280  0.62200  0.39332  1.0000 0.6169737016
C   C4        1.0  0.22720  0.37800  0.89332  1.0000 0.6169737016
C   C5        1.0  0.73940  0.05110  0.17590  1.0000 -0.0281741295
C   C6        1.0  0.76060  0.94890  0.67590  1.0000 -0.0281741295
C   C7        1.0  0.26060  0.55110  0.32410  1.0000 -0.0281741295
C   C8        1.0  0.23940  0.44890  0.82410  1.0000 -0.0281741295
C   C9        1.0  0.57150  0.00550  0.20587  1.0000 -0.1064569635
C   C10       1.0  0.92850  0.99450  0.70587  1.0000 -0.1064569635
C   C11       1.0  0.42850  0.50550  0.29413  1.0000 -0.1064569635
C   C12       1.0  0.07150  0.49450  0.79413  1.0000 -0.1064569635
C   C13       1.0  0.58290  0.94350  0.27208  1.0000 -0.0992454417
C   C14       1.0  0.91710  0.05650  0.77208  1.0000 -0.0992454417
C   C15       1.0  0.41710  0.44350  0.22792  1.0000 -0.0992454417
C   C16       1.0  0.08290  0.55650  0.72792  1.0000 -0.0992454417
C   C17       1.0  0.91980  0.03400  0.21286  1.0000 -0.0992454417
C   C18       1.0  0.58020  0.96600  0.71286  1.0000 -0.0992454417
C   C19       1.0  0.08020  0.53400  0.28714  1.0000 -0.0992454417
C   C20       1.0  0.41980  0.46600  0.78714  1.0000 -0.0992454417
C   C21       1.0  0.93090  0.97190  0.27946  1.0000 -0.0992454417
C   C22       1.0  0.56910  0.02810  0.77946  1.0000 -0.0992454417
C   C23       1.0  0.06910  0.47190  0.22054  1.0000 -0.0992454417
C   C24       1.0  0.43090  0.52810  0.72054  1.0000 -0.0992454417
C   C25       1.0  0.76160  0.92600  0.30959  1.0000 -0.0281741295
C   C26       1.0  0.73840  0.07400  0.80959  1.0000 -0.0281741295
C   C27       1.0  0.23840  0.42600  0.19041  1.0000 -0.0281741295
C   C28       1.0  0.26160  0.57400  0.69041  1.0000 -0.0281741295
C   C29       1.0  0.77310  0.86160  0.38247  1.0000 0.6169737016
C   C30       1.0  0.72690  0.13840  0.88247  1.0000 0.6169737016
C   C31       1.0  0.22690  0.36160  0.11753  1.0000 0.6169737016
C   C32       1.0  0.27310  0.63840  0.61753  1.0000 0.6169737016
O   O1        1.0  0.78031  0.68808  0.50309  1.0000 -0.7499946917
O   O2        1.0  0.71969  0.31192  0.00309  1.0000 -0.7499946917
O   O3        1.0  0.21969  0.18808  0.99691  1.0000 -0.7499946917
O   O4        1.0  0.28031  0.81192  0.49691  1.0000 -0.7499946917
O   O5        1.0  0.61230  0.82882  0.41019  1.0000 -0.5796410108
O   O6        1.0  0.88770  0.17118  0.91019  1.0000 -0.5796410108
O   O7        1.0  0.38770  0.32882  0.08981  1.0000 -0.5796410108
O   O8        1.0  0.11230  0.67118  0.58981  1.0000 -0.5796410108
O   O9        1.0  0.55790  0.14215  0.07933  1.0000 -0.5997684563
O   O10       1.0  0.94210  0.85785  0.57933  1.0000 -0.5997684563
O   O11       1.0  0.44210  0.64215  0.42067  1.0000 -0.5997684563
O   O12       1.0  0.05790  0.35785  0.92067  1.0000 -0.5997684563
O   O13       1.0  0.94030  0.84363  0.41084  1.0000 -0.5902570302
O   O14       1.0  0.55970  0.15637  0.91084  1.0000 -0.5902570302
O   O15       1.0  0.05970  0.34363  0.08916  1.0000 -0.5902570302
O   O16       1.0  0.44030  0.65637  0.58916  1.0000 -0.5902570302
O   O17       1.0  0.88780  0.15727  0.08038  1.0000 -0.5796410108
O   O18       1.0  0.61220  0.84273  0.58038  1.0000 -0.5796410108
O   O19       1.0  0.11220  0.65727  0.41962  1.0000 -0.5796410108
O   O20       1.0  0.38780  0.34273  0.91962  1.0000 -0.5796410108
