# DDEC6 charges by PACMAN v1.1 (https://github.com/mtap-research/PACMAN-charge/)
data_KAMZUV_ASR_pacman
_symmetry_space_group_name_H-M   'P 1'
_cell_length_a   14.81540000
_cell_length_b   14.81540000
_cell_length_c   14.81540000
_cell_angle_alpha   109.47100000
_cell_angle_beta   109.47100000
_cell_angle_gamma   109.47100000
_symmetry_Int_Tables_number   1
_chemical_formula_structural   ZnH16(C2N)4
_chemical_formula_sum   'Zn6 H96 C48 N24'
_cell_volume   2503.35131148
_cell_formula_units_Z   6
loop_
 _symmetry_equiv_pos_site_id
 _symmetry_equiv_pos_as_xyz
  1  'x, y, z'
loop_
 _atom_site_type_symbol
 _atom_site_label
 _atom_site_symmetry_multiplicity
 _atom_site_fract_x
 _atom_site_fract_y
 _atom_site_fract_z
 _atom_site_occupancy
 _atom_site_charge
Zn  Zn1  1  0.75000000  0.25000000  0.50000000  1.0 0.6049474496
Zn  Zn2  1  0.25000000  0.75000000  0.50000000  1.0 0.6049474496
Zn  Zn3  1  0.50000000  0.75000000  0.25000000  1.0 0.6057460326
Zn  Zn4  1  0.25000000  0.50000000  0.75000000  1.0 0.6049474496
Zn  Zn5  1  0.50000000  0.25000000  0.75000000  1.0 0.6049474496
Zn  Zn6  1  0.75000000  0.50000000  0.25000000  1.0 0.6049474496
H  H1  1  0.84605000  0.27982000  0.74349000  1.0 0.1253422535
H  H2  1  0.46367000  0.72018000  0.56623000  1.0 0.1253422535
H  H3  1  0.53633000  0.10256000  0.25651000  1.0 0.1253422535
H  H4  1  0.15395000  0.89744000  0.43377000  1.0 0.1253422535
H  H5  1  0.72018000  0.46367000  0.56623000  1.0 0.1253422535
H  H6  1  0.89744000  0.15395000  0.43377000  1.0 0.1253422535
H  H7  1  0.10256000  0.53633000  0.25651000  1.0 0.1253422535
H  H8  1  0.27982000  0.84605000  0.74349000  1.0 0.1253422535
H  H9  1  0.74349000  0.84605000  0.27982000  1.0 0.1253422535
H  H10  1  0.27982000  0.74349000  0.84605000  1.0 0.1253422535
H  H11  1  0.74349000  0.27982000  0.84605000  1.0 0.1253422535
H  H12  1  0.84605000  0.74349000  0.27982000  1.0 0.1253422535
H  H13  1  0.56623000  0.46367000  0.72018000  1.0 0.1253422535
H  H14  1  0.25651000  0.53633000  0.10256000  1.0 0.1253422535
H  H15  1  0.43377000  0.15395000  0.89744000  1.0 0.1253422535
H  H16  1  0.72018000  0.56623000  0.46367000  1.0 0.1253422535
H  H17  1  0.10256000  0.25651000  0.53633000  1.0 0.1253422535
H  H18  1  0.89744000  0.43377000  0.15395000  1.0 0.1253422535
H  H19  1  0.15395000  0.43377000  0.89744000  1.0 0.1253422535
H  H20  1  0.53633000  0.25651000  0.10256000  1.0 0.1253422535
H  H21  1  0.46367000  0.56623000  0.72018000  1.0 0.1253422535
H  H22  1  0.25651000  0.10256000  0.53633000  1.0 0.1253422535
H  H23  1  0.43377000  0.89744000  0.15395000  1.0 0.1253422535
H  H24  1  0.56623000  0.72018000  0.46367000  1.0 0.1253422535
H  H25  1  0.70206000  0.92529000  0.45245000  1.0 0.0519561565
H  H26  1  0.52716000  0.07471000  0.77677000  1.0 0.0519561565
H  H27  1  0.47284000  0.24961000  0.54755000  1.0 0.0519561565
H  H28  1  0.29794000  0.75039000  0.22323000  1.0 0.0519561565
H  H29  1  0.07471000  0.52716000  0.77677000  1.0 0.0519561565
H  H30  1  0.75039000  0.29794000  0.22323000  1.0 0.0519561565
H  H31  1  0.24961000  0.47284000  0.54755000  1.0 0.0519561565
H  H32  1  0.92529000  0.70206000  0.45245000  1.0 0.0519561565
H  H33  1  0.45245000  0.70206000  0.92529000  1.0 0.0519561565
H  H34  1  0.92529000  0.45245000  0.70206000  1.0 0.0519561565
H  H35  1  0.45245000  0.92529000  0.70206000  1.0 0.0519561565
H  H36  1  0.70206000  0.45245000  0.92529000  1.0 0.0519561565
H  H37  1  0.77677000  0.52716000  0.07471000  1.0 0.0519561565
H  H38  1  0.54755000  0.47284000  0.24961000  1.0 0.0519561565
H  H39  1  0.22323000  0.29794000  0.75039000  1.0 0.0519561565
H  H40  1  0.07471000  0.77677000  0.52716000  1.0 0.0519561565
H  H41  1  0.24961000  0.54755000  0.47284000  1.0 0.0519561565
H  H42  1  0.75039000  0.22323000  0.29794000  1.0 0.0519561565
H  H43  1  0.29794000  0.22323000  0.75039000  1.0 0.0519561565
H  H44  1  0.47284000  0.54755000  0.24961000  1.0 0.0519561565
H  H45  1  0.52716000  0.77677000  0.07471000  1.0 0.0519561565
H  H46  1  0.54755000  0.24961000  0.47284000  1.0 0.0519561565
H  H47  1  0.22323000  0.75039000  0.29794000  1.0 0.0519561565
H  H48  1  0.77677000  0.07471000  0.52716000  1.0 0.0519561565
H  H49  1  0.79455000  0.04101000  0.48716000  1.0 0.0519561565
H  H50  1  0.44615000  0.95899000  0.75354000  1.0 0.0519561565
H  H51  1  0.55385000  0.30739000  0.51284000  1.0 0.0519561565
H  H52  1  0.20545000  0.69261000  0.24646000  1.0 0.0519561565
H  H53  1  0.95899000  0.44615000  0.75354000  1.0 0.0519561565
H  H54  1  0.69261000  0.20545000  0.24646000  1.0 0.0519561565
H  H55  1  0.30739000  0.55385000  0.51284000  1.0 0.0519561565
H  H56  1  0.04101000  0.79455000  0.48716000  1.0 0.0519561565
H  H57  1  0.48716000  0.79455000  0.04101000  1.0 0.0519561565
H  H58  1  0.04101000  0.48716000  0.79455000  1.0 0.0519561565
H  H59  1  0.48716000  0.04101000  0.79455000  1.0 0.0519561565
H  H60  1  0.79455000  0.48716000  0.04101000  1.0 0.0519561565
H  H61  1  0.75354000  0.44615000  0.95899000  1.0 0.0519561565
H  H62  1  0.51284000  0.55385000  0.30739000  1.0 0.0519561565
H  H63  1  0.24646000  0.20545000  0.69261000  1.0 0.0519561565
H  H64  1  0.95899000  0.75354000  0.44615000  1.0 0.0519561565
H  H65  1  0.30739000  0.51284000  0.55385000  1.0 0.0519561565
H  H66  1  0.69261000  0.24646000  0.20545000  1.0 0.0519561565
H  H67  1  0.20545000  0.24646000  0.69261000  1.0 0.0519561565
H  H68  1  0.55385000  0.51284000  0.30739000  1.0 0.0519561565
H  H69  1  0.44615000  0.75354000  0.95899000  1.0 0.0519561565
H  H70  1  0.51284000  0.30739000  0.55385000  1.0 0.0519561565
H  H71  1  0.24646000  0.69261000  0.20545000  1.0 0.0519561565
H  H72  1  0.75354000  0.95899000  0.44615000  1.0 0.0519561565
H  H73  1  0.71410000  0.03368000  0.53484000  1.0 0.0646891929
H  H74  1  0.50116000  0.96632000  0.68042000  1.0 0.0646891929
H  H75  1  0.49884000  0.17926000  0.46516000  1.0 0.0646891929
H  H76  1  0.28590000  0.82074000  0.31958000  1.0 0.0646891929
H  H77  1  0.96632000  0.50116000  0.68042000  1.0 0.0646891929
H  H78  1  0.82074000  0.28590000  0.31958000  1.0 0.0646891929
H  H79  1  0.17926000  0.49884000  0.46516000  1.0 0.0646891929
H  H80  1  0.03368000  0.71410000  0.53484000  1.0 0.0646891929
H  H81  1  0.53484000  0.71410000  0.03368000  1.0 0.0646891929
H  H82  1  0.03368000  0.53484000  0.71410000  1.0 0.0646891929
H  H83  1  0.53484000  0.03368000  0.71410000  1.0 0.0646891929
H  H84  1  0.71410000  0.53484000  0.03368000  1.0 0.0646891929
H  H85  1  0.68042000  0.50116000  0.96632000  1.0 0.0646891929
H  H86  1  0.46516000  0.49884000  0.17926000  1.0 0.0646891929
H  H87  1  0.31958000  0.28590000  0.82074000  1.0 0.0646891929
H  H88  1  0.96632000  0.68042000  0.50116000  1.0 0.0646891929
H  H89  1  0.17926000  0.46516000  0.49884000  1.0 0.0646891929
H  H90  1  0.82074000  0.31958000  0.28590000  1.0 0.0646891929
H  H91  1  0.28590000  0.31958000  0.82074000  1.0 0.0646891929
H  H92  1  0.49884000  0.46516000  0.17926000  1.0 0.0646891929
H  H93  1  0.50116000  0.68042000  0.96632000  1.0 0.0646891929
H  H94  1  0.46516000  0.17926000  0.49884000  1.0 0.0646891929
H  H95  1  0.31958000  0.82074000  0.28590000  1.0 0.0646891929
H  H96  1  0.68042000  0.96632000  0.50116000  1.0 0.0646891929
C  C1  1  0.62454000  0.26644000  0.62454000  1.0 0.2762575257
C  C2  1  0.35810000  0.73356000  0.35810000  1.0 0.2762575257
C  C3  1  0.64190000  0.00000000  0.37546000  1.0 0.2762575257
C  C4  1  0.37546000  0.00000000  0.64190000  1.0 0.2762575257
C  C5  1  0.73356000  0.35810000  0.35810000  1.0 0.2762575257
C  C6  1  0.00000000  0.37546000  0.64190000  1.0 0.2762575257
C  C7  1  0.00000000  0.64190000  0.37546000  1.0 0.2762575257
C  C8  1  0.26644000  0.62454000  0.62454000  1.0 0.2762575257
C  C9  1  0.62454000  0.62454000  0.26644000  1.0 0.2762575257
C  C10  1  0.35810000  0.35810000  0.73356000  1.0 0.2762575257
C  C11  1  0.37546000  0.64190000  0.00000000  1.0 0.2726799417
C  C12  1  0.64190000  0.37546000  0.00000000  1.0 0.2726799417
C  C13  1  0.77553000  0.27595000  0.71926000  1.0 -0.0507476412
C  C14  1  0.44331000  0.72405000  0.49958000  1.0 -0.0507476412
C  C15  1  0.55669000  0.05627000  0.28074000  1.0 -0.0507476412
C  C16  1  0.22447000  0.94373000  0.50042000  1.0 -0.0507476412
C  C17  1  0.72405000  0.44331000  0.49958000  1.0 -0.0507476412
C  C18  1  0.94373000  0.22447000  0.50042000  1.0 -0.0507476412
C  C19  1  0.05627000  0.55669000  0.28074000  1.0 -0.0507476412
C  C20  1  0.27595000  0.77553000  0.71926000  1.0 -0.0507476412
C  C21  1  0.71926000  0.77553000  0.27595000  1.0 -0.0507476412
C  C22  1  0.27595000  0.71926000  0.77553000  1.0 -0.0507476412
C  C23  1  0.71926000  0.27595000  0.77553000  1.0 -0.0507476412
C  C24  1  0.77553000  0.71926000  0.27595000  1.0 -0.0507476412
C  C25  1  0.49958000  0.44331000  0.72405000  1.0 -0.0507476412
C  C26  1  0.28074000  0.55669000  0.05627000  1.0 -0.0507476412
C  C27  1  0.50042000  0.22447000  0.94373000  1.0 -0.0507476412
C  C28  1  0.72405000  0.49958000  0.44331000  1.0 -0.0507476412
C  C29  1  0.05627000  0.28074000  0.55669000  1.0 -0.0507476412
C  C30  1  0.94373000  0.50042000  0.22447000  1.0 -0.0507476412
C  C31  1  0.22447000  0.50042000  0.94373000  1.0 -0.0507476412
C  C32  1  0.55669000  0.28074000  0.05627000  1.0 -0.0507476412
C  C33  1  0.44331000  0.49958000  0.72405000  1.0 -0.0507476412
C  C34  1  0.28074000  0.05627000  0.55669000  1.0 -0.0507476412
C  C35  1  0.50042000  0.94373000  0.22447000  1.0 -0.0507476412
C  C36  1  0.49958000  0.72405000  0.44331000  1.0 -0.0507476412
C  C37  1  0.52892000  0.24918000  0.52892000  1.0 -0.3945671301
C  C38  1  0.27974000  0.75082000  0.27974000  1.0 -0.3945671301
C  C39  1  0.72026000  0.00000000  0.47108000  1.0 -0.3945671301
C  C40  1  0.47108000  0.00000000  0.72026000  1.0 -0.3945671301
C  C41  1  0.75082000  0.27974000  0.27974000  1.0 -0.3945671301
C  C42  1  0.00000000  0.47108000  0.72026000  1.0 -0.3945671301
C  C43  1  0.00000000  0.72026000  0.47108000  1.0 -0.3945671301
C  C44  1  0.24918000  0.52892000  0.52892000  1.0 -0.3945671301
C  C45  1  0.52892000  0.52892000  0.24918000  1.0 -0.3945671301
C  C46  1  0.27974000  0.27974000  0.75082000  1.0 -0.3945671301
C  C47  1  0.47108000  0.72026000  0.00000000  1.0 -0.3945671301
C  C48  1  0.72026000  0.47108000  0.00000000  1.0 -0.3945671301
N  N1  1  0.71429000  0.26941000  0.62158000  1.0 -0.3350990695
N  N2  1  0.35217000  0.73059000  0.44488000  1.0 -0.3350990695
N  N3  1  0.64783000  0.09271000  0.37842000  1.0 -0.3350990695
N  N4  1  0.28571000  0.90729000  0.55512000  1.0 -0.3350990695
N  N5  1  0.73059000  0.35217000  0.44488000  1.0 -0.3350990695
N  N6  1  0.90729000  0.28571000  0.55512000  1.0 -0.3350990695
N  N7  1  0.09271000  0.64783000  0.37842000  1.0 -0.3350990695
N  N8  1  0.26941000  0.71429000  0.62158000  1.0 -0.3350990695
N  N9  1  0.62158000  0.71429000  0.26941000  1.0 -0.3350990695
N  N10  1  0.26941000  0.62158000  0.71429000  1.0 -0.3350990695
N  N11  1  0.62158000  0.26941000  0.71429000  1.0 -0.3350990695
N  N12  1  0.71429000  0.62158000  0.26941000  1.0 -0.3350990695
N  N13  1  0.44488000  0.35217000  0.73059000  1.0 -0.3350990695
N  N14  1  0.37842000  0.64783000  0.09271000  1.0 -0.3350990695
N  N15  1  0.55512000  0.28571000  0.90729000  1.0 -0.3350990695
N  N16  1  0.73059000  0.44488000  0.35217000  1.0 -0.3350990695
N  N17  1  0.09271000  0.37842000  0.64783000  1.0 -0.3350990695
N  N18  1  0.90729000  0.55512000  0.28571000  1.0 -0.3340700847
N  N19  1  0.28571000  0.55512000  0.90729000  1.0 -0.3350990695
N  N20  1  0.64783000  0.37842000  0.09271000  1.0 -0.3340700847
N  N21  1  0.35217000  0.44488000  0.73059000  1.0 -0.3350990695
N  N22  1  0.37842000  0.09271000  0.64783000  1.0 -0.3350990695
N  N23  1  0.55512000  0.90729000  0.28571000  1.0 -0.3350990695
N  N24  1  0.44488000  0.73059000  0.35217000  1.0 -0.3350990695
