# DDEC6 charges by PACMAN v1.1 (https://github.com/mtap-research/PACMAN-charge/)
data_KAXQIL_ASR_pacman
_symmetry_space_group_name_H-M   'P 1'
_cell_length_a   11.82140000
_cell_length_b   5.56730000
_cell_length_c   23.68630000
_cell_angle_alpha   90.00000000
_cell_angle_beta   109.04700000
_cell_angle_gamma   90.00000000
_symmetry_Int_Tables_number   1
_chemical_formula_structural   CaH8C14SO6
_chemical_formula_sum   'Ca4 H32 C56 S4 O24'
_cell_volume   1473.52665590
_cell_formula_units_Z   4
loop_
 _symmetry_equiv_pos_site_id
 _symmetry_equiv_pos_as_xyz
  1  'x, y, z'
loop_
 _atom_site_type_symbol
 _atom_site_label
 _atom_site_symmetry_multiplicity
 _atom_site_fract_x
 _atom_site_fract_y
 _atom_site_fract_z
 _atom_site_occupancy
 _atom_site_charge
Ca  Ca1  1  0.08605000  0.24415000  0.72287000  1.0 1.3987253036
Ca  Ca2  1  0.91395000  0.74415000  0.77713000  1.0 1.3987253036
Ca  Ca3  1  0.91395000  0.75585000  0.27713000  1.0 1.3987253036
Ca  Ca4  1  0.08605000  0.25585000  0.22287000  1.0 1.3987253036
H  H1  1  0.42440000  0.80040000  0.61890000  1.0 0.1200236976
H  H2  1  0.57560000  0.30040000  0.88110000  1.0 0.1200236976
H  H3  1  0.57560000  0.19960000  0.38110000  1.0 0.1200236976
H  H4  1  0.42440000  0.69960000  0.11890000  1.0 0.1200236976
H  H5  1  0.17430000  0.87510000  0.40610000  1.0 0.1293661881
H  H6  1  0.82570000  0.37510000  0.09390000  1.0 0.1293661881
H  H7  1  0.82570000  0.12490000  0.59390000  1.0 0.1293661881
H  H8  1  0.17430000  0.62490000  0.90610000  1.0 0.1293661881
H  H9  1  0.11660000  0.44590000  0.53720000  1.0 0.1293661881
H  H10  1  0.88340000  0.94590000  0.96280000  1.0 0.1293661881
H  H11  1  0.88340000  0.55410000  0.46280000  1.0 0.1293661881
H  H12  1  0.11660000  0.05410000  0.03720000  1.0 0.1293661881
H  H13  1  0.33410000  0.43770000  0.67290000  1.0 0.1293661881
H  H14  1  0.66590000  0.93770000  0.82710000  1.0 0.1293661881
H  H15  1  0.66590000  0.56230000  0.32710000  1.0 0.1293661881
H  H16  1  0.33410000  0.06230000  0.17290000  1.0 0.1293661881
H  H17  1  0.53580000  0.52170000  0.71970000  1.0 0.1129972141
H  H18  1  0.46420000  0.02170000  0.78030000  1.0 0.1129972141
H  H19  1  0.46420000  0.47830000  0.28030000  1.0 0.1129972141
H  H20  1  0.53580000  0.97830000  0.21970000  1.0 0.1129972141
H  H21  1  0.62520000  0.88140000  0.66910000  1.0 0.1293661881
H  H22  1  0.37480000  0.38140000  0.83090000  1.0 0.1293661881
H  H23  1  0.37480000  0.11860000  0.33090000  1.0 0.1293661881
H  H24  1  0.62520000  0.61860000  0.16910000  1.0 0.1293661881
H  H25  1  0.23270000  0.79340000  0.50780000  1.0 0.1200236976
H  H26  1  0.76730000  0.29340000  0.99220000  1.0 0.1200236976
H  H27  1  0.76730000  0.20660000  0.49220000  1.0 0.1200236976
H  H28  1  0.23270000  0.70660000  0.00780000  1.0 0.1200236976
H  H29  1  0.06270000  0.52870000  0.43580000  1.0 0.1200236976
H  H30  1  0.93730000  0.02870000  0.06420000  1.0 0.1200236976
H  H31  1  0.93730000  0.47130000  0.56420000  1.0 0.1200236976
H  H32  1  0.06270000  0.97130000  0.93580000  1.0 0.1200236976
C  C1  1  0.73035000  0.25860000  0.73489000  1.0 0.6182639326
C  C2  1  0.26965000  0.75860000  0.76511000  1.0 0.6182639326
C  C3  1  0.26965000  0.74140000  0.26511000  1.0 0.6182639326
C  C4  1  0.73035000  0.24140000  0.23489000  1.0 0.6182639326
C  C5  1  0.06819000  0.26070000  0.34493000  1.0 0.613193902
C  C6  1  0.93181000  0.76070000  0.15507000  1.0 0.613193902
C  C7  1  0.93181000  0.73930000  0.65507000  1.0 0.613193902
C  C8  1  0.06819000  0.23930000  0.84493000  1.0 0.613193902
C  C9  1  0.17630000  0.10920000  0.53136000  1.0 -0.084559833
C  C10  1  0.82370000  0.60920000  0.96864000  1.0 -0.0894926388
C  C11  1  0.82370000  0.89080000  0.46864000  1.0 -0.0894926388
C  C12  1  0.17630000  0.39080000  0.03136000  1.0 -0.084559833
C  C13  1  0.36113000  0.11040000  0.64219000  1.0 -0.0894926388
C  C14  1  0.63887000  0.61040000  0.85781000  1.0 -0.0894926388
C  C15  1  0.63887000  0.88960000  0.35781000  1.0 -0.0894926388
C  C16  1  0.36113000  0.38960000  0.14219000  1.0 -0.0894926388
C  C17  1  0.44700000  0.94330000  0.63996000  1.0 -0.1077773545
C  C18  1  0.55300000  0.44330000  0.86004000  1.0 -0.1077773545
C  C19  1  0.55300000  0.05670000  0.36004000  1.0 -0.1077773545
C  C20  1  0.44700000  0.55670000  0.13996000  1.0 -0.1077773545
C  C21  1  0.16203000  0.98860000  0.43228000  1.0 -0.0894926388
C  C22  1  0.83797000  0.48860000  0.06772000  1.0 -0.0894926388
C  C23  1  0.83797000  0.01140000  0.56772000  1.0 -0.0894926388
C  C24  1  0.16203000  0.51140000  0.93228000  1.0 -0.0894926388
C  C25  1  0.10941000  0.20730000  0.41069000  1.0 -0.0144451857
C  C26  1  0.89059000  0.70730000  0.08931000  1.0 -0.0144451857
C  C27  1  0.89059000  0.79270000  0.58931000  1.0 -0.0144451857
C  C28  1  0.10941000  0.29270000  0.91069000  1.0 -0.0144451857
C  C29  1  0.12736000  0.33130000  0.51080000  1.0 -0.0988516695
C  C30  1  0.87264000  0.83130000  0.98920000  1.0 -0.0988516695
C  C31  1  0.87264000  0.66870000  0.48920000  1.0 -0.0988516695
C  C32  1  0.12736000  0.16870000  0.01080000  1.0 -0.0988516695
C  C33  1  0.39241000  0.32720000  0.67190000  1.0 -0.0894926388
C  C34  1  0.60759000  0.82720000  0.82810000  1.0 -0.0894926388
C  C35  1  0.60759000  0.67280000  0.32810000  1.0 -0.0894926388
C  C36  1  0.39241000  0.17280000  0.17190000  1.0 -0.0894926388
C  C37  1  0.51301000  0.37560000  0.70025000  1.0 -0.0988516695
C  C38  1  0.48699000  0.87560000  0.79975000  1.0 -0.0988516695
C  C39  1  0.48699000  0.62440000  0.29975000  1.0 -0.0988516695
C  C40  1  0.51301000  0.12440000  0.20025000  1.0 -0.0988516695
C  C41  1  0.56698000  0.99290000  0.66960000  1.0 -0.0988516695
C  C42  1  0.43302000  0.49290000  0.83040000  1.0 -0.0988516695
C  C43  1  0.43302000  0.00710000  0.33040000  1.0 -0.0988516695
C  C44  1  0.56698000  0.50710000  0.16960000  1.0 -0.0988516695
C  C45  1  0.19650000  0.93900000  0.49305000  1.0 -0.1077773545
C  C46  1  0.80350000  0.43900000  0.00695000  1.0 -0.1077773545
C  C47  1  0.80350000  0.06100000  0.50695000  1.0 -0.1077773545
C  C48  1  0.19650000  0.56100000  0.99305000  1.0 -0.1077773545
C  C49  1  0.60012000  0.20830000  0.69994000  1.0 -0.0186204242
C  C50  1  0.39988000  0.70830000  0.80006000  1.0 -0.0186204242
C  C51  1  0.39988000  0.79170000  0.30006000  1.0 -0.0186204242
C  C52  1  0.60012000  0.29170000  0.19994000  1.0 -0.0186204242
C  C53  1  0.09475000  0.37960000  0.45021000  1.0 -0.0894926388
C  C54  1  0.90525000  0.87960000  0.04979000  1.0 -0.0894926388
C  C55  1  0.90525000  0.62040000  0.54979000  1.0 -0.0894926388
C  C56  1  0.09475000  0.12040000  0.95021000  1.0 -0.0894926388
S  S1  1  0.20933000  0.03637000  0.60768000  1.0 0.9913218941
S  S2  1  0.79067000  0.53637000  0.89232000  1.0 0.9913218941
S  S3  1  0.79067000  0.96363000  0.39232000  1.0 0.9913218941
S  S4  1  0.20933000  0.46363000  0.10768000  1.0 0.9913218941
O  O1  1  0.13786000  0.19500000  0.63096000  1.0 -0.5686809693
O  O2  1  0.86214000  0.69500000  0.86904000  1.0 -0.5686809693
O  O3  1  0.86214000  0.80500000  0.36904000  1.0 -0.5686809693
O  O4  1  0.13786000  0.30500000  0.13096000  1.0 -0.5686809693
O  O5  1  0.04710000  0.08480000  0.30936000  1.0 -0.6731048499
O  O6  1  0.95290000  0.58480000  0.19064000  1.0 -0.6731048499
O  O7  1  0.95290000  0.91520000  0.69064000  1.0 -0.6731048499
O  O8  1  0.04710000  0.41520000  0.80936000  1.0 -0.6731048499
O  O9  1  0.19642000  0.78110000  0.61176000  1.0 -0.5066207324
O  O10  1  0.80358000  0.28110000  0.88824000  1.0 -0.5066207324
O  O11  1  0.80358000  0.21890000  0.38824000  1.0 -0.5066207324
O  O12  1  0.19642000  0.71890000  0.11176000  1.0 -0.5066207324
O  O13  1  0.75955000  0.47430000  0.74378000  1.0 -0.6315458987
O  O14  1  0.24045000  0.97430000  0.75622000  1.0 -0.6315458987
O  O15  1  0.24045000  0.52570000  0.25622000  1.0 -0.6315458987
O  O16  1  0.75955000  0.02570000  0.24378000  1.0 -0.6315458987
O  O17  1  0.79590000  0.08090000  0.75285000  1.0 -0.6209567611
O  O18  1  0.20410000  0.58090000  0.74715000  1.0 -0.6209567611
O  O19  1  0.20410000  0.91910000  0.24715000  1.0 -0.6209567611
O  O20  1  0.79590000  0.41910000  0.25285000  1.0 -0.6209567611
O  O21  1  0.06074000  0.47490000  0.32832000  1.0 -0.6209567611
O  O22  1  0.93926000  0.97490000  0.17168000  1.0 -0.6209567611
O  O23  1  0.93926000  0.52510000  0.67168000  1.0 -0.6209567611
O  O24  1  0.06074000  0.02510000  0.82832000  1.0 -0.6209567611
