# DDEC6 charges by PACMAN v1.1 (https://github.com/mtap-research/PACMAN-charge/)
data_2010[Mn][nan]3[ASR]4
_chemical_formula_sum              "Mn4 H32 C52 N4 O20"
_cell_length_a       12.6992
_cell_length_b       12.6992
_cell_length_c       13.3781
_cell_angle_alpha    63.5325
_cell_angle_beta     116.467
_cell_angle_gamma    91.6025

_symmetry_space_group_name_H-M    "P 1"
_symmetry_Int_Tables_number       1

loop_
  _symmetry_equiv_pos_as_xyz
  'x, y, z'

loop_
  _atom_site_type_symbol
  _atom_site_label
  _atom_site_symmetry_multiplicity
  _atom_site_fract_x
  _atom_site_fract_y
  _atom_site_fract_z
  _atom_site_occupancy
  _atom_site_charge
Mn  Mn1       1.0  1.00000  0.50000  0.00000  1.0000 1.0429237028
Mn  Mn2       1.0  0.50000  0.00000  0.50000  1.0000 1.0429237028
Mn  Mn3       1.0  0.69484  0.69484  0.75000  1.0000 1.0536484857
Mn  Mn4       1.0  0.30516  0.30516  0.25000  1.0000 1.0536484857
H   H1        1.0  0.83650  0.25150  0.22970  1.0000 0.1094554783
H   H2        1.0  0.25150  0.83650  0.27030  1.0000 0.1094554783
H   H3        1.0  0.16350  0.74850  0.77030  1.0000 0.1094554783
H   H4        1.0  0.74850  0.16350  0.72970  1.0000 0.1094554783
H   H5        1.0  0.72830  0.14390  0.32540  1.0000 0.1094554783
H   H6        1.0  0.14390  0.72830  0.17460  1.0000 0.1094554783
H   H7        1.0  0.27170  0.85610  0.67460  1.0000 0.1094554783
H   H8        1.0  0.85610  0.27170  0.82540  1.0000 0.1094554783
H   H9        1.0  0.42130  0.34870  0.00690  1.0000 0.122724994
H   H10       1.0  0.34870  0.42130  0.49310  1.0000 0.122724994
H   H11       1.0  0.57870  0.65130  0.99310  1.0000 0.122724994
H   H12       1.0  0.65130  0.57870  0.50690  1.0000 0.122724994
H   H13       1.0  0.52960  0.45360  0.90930  1.0000 0.127567253
H   H14       1.0  0.45360  0.52960  0.59070  1.0000 0.127567253
H   H15       1.0  0.47040  0.54640  0.09070  1.0000 0.127567253
H   H16       1.0  0.54640  0.47040  0.40930  1.0000 0.127567253
H   H17       1.0  0.80470  0.76230  0.99370  1.0000 0.149250715
H   H18       1.0  0.76230  0.80470  0.50630  1.0000 0.149250715
H   H19       1.0  0.19530  0.23770  0.00630  1.0000 0.149250715
H   H20       1.0  0.23770  0.19530  0.49370  1.0000 0.149250715
H   H21       1.0  0.85930  0.91250  0.04530  1.0000 0.1356022347
H   H22       1.0  0.91250  0.85930  0.45470  1.0000 0.1356022347
H   H23       1.0  0.14070  0.08750  0.95470  1.0000 0.1356022347
H   H24       1.0  0.08750  0.14070  0.54530  1.0000 0.1356022347
H   H25       1.0  0.09010  0.95350  0.90880  1.0000 0.1356022347
H   H26       1.0  0.95350  0.09010  0.59120  1.0000 0.1356022347
H   H27       1.0  0.90990  0.04650  0.09120  1.0000 0.1356022347
H   H28       1.0  0.04650  0.90990  0.40880  1.0000 0.1356022347
H   H29       1.0  0.03530  0.79890  0.86550  1.0000 0.1356022347
H   H30       1.0  0.79890  0.03530  0.63450  1.0000 0.1356022347
H   H31       1.0  0.96470  0.20110  0.13450  1.0000 0.1356022347
H   H32       1.0  0.20110  0.96470  0.36550  1.0000 0.1356022347
C   C1        1.0  0.76433  0.44053  0.99890  1.0000 0.589883103
C   C2        1.0  0.44053  0.76433  0.50110  1.0000 0.589883103
C   C3        1.0  0.23567  0.55947  0.00110  1.0000 0.589883103
C   C4        1.0  0.55947  0.23567  0.49890  1.0000 0.589883103
C   C5        1.0  0.69495  0.36535  0.06050  1.0000 -0.0211976628
C   C6        1.0  0.36535  0.69495  0.43950  1.0000 -0.0211976628
C   C7        1.0  0.30505  0.63465  0.93950  1.0000 -0.0211976628
C   C8        1.0  0.63465  0.30505  0.56050  1.0000 -0.0211976628
C   C9        1.0  0.75280  0.27160  0.18450  1.0000 -0.1255728911
C   C10       1.0  0.27160  0.75280  0.31550  1.0000 -0.1255728911
C   C11       1.0  0.24720  0.72840  0.81550  1.0000 -0.1255728911
C   C12       1.0  0.72840  0.24720  0.68450  1.0000 -0.1255728911
C   C13       1.0  0.68800  0.20720  0.24220  1.0000 -0.1149189631
C   C14       1.0  0.20720  0.68800  0.25780  1.0000 -0.1149189631
C   C15       1.0  0.31200  0.79280  0.75780  1.0000 -0.1149189631
C   C16       1.0  0.79280  0.31200  0.74220  1.0000 -0.1149189631
C   C17       1.0  0.56309  0.23649  0.17690  1.0000 -0.0134708109
C   C18       1.0  0.23649  0.56309  0.32310  1.0000 -0.0134708109
C   C19       1.0  0.43691  0.76351  0.82310  1.0000 -0.0134708109
C   C20       1.0  0.76351  0.43691  0.67690  1.0000 -0.0134708109
C   C21       1.0  0.50500  0.32900  0.05210  1.0000 -0.1012148029
C   C22       1.0  0.32900  0.50500  0.44790  1.0000 -0.1012148029
C   C23       1.0  0.49500  0.67100  0.94790  1.0000 -0.1012148029
C   C24       1.0  0.67100  0.49500  0.55210  1.0000 -0.1012148029
C   C25       1.0  0.56987  0.39247  0.99370  1.0000 -0.1012148029
C   C26       1.0  0.39247  0.56987  0.50630  1.0000 -0.1012148029
C   C27       1.0  0.43013  0.60753  0.00630  1.0000 -0.1012148029
C   C28       1.0  0.60753  0.43013  0.49370  1.0000 -0.1012148029
C   C29       1.0  0.49312  0.17372  0.24390  1.0000 0.589883103
C   C30       1.0  0.17372  0.49312  0.25610  1.0000 0.589883103
C   C31       1.0  0.50688  0.82628  0.75610  1.0000 0.589883103
C   C32       1.0  0.82628  0.50688  0.74390  1.0000 0.589883103
C   C33       1.0  0.86240  0.80160  0.97670  1.0000 -0.0134708109
C   C34       1.0  0.80160  0.86240  0.52330  1.0000 -0.0134708109
C   C35       1.0  0.13760  0.19840  0.02330  1.0000 -0.0134708109
C   C36       1.0  0.19840  0.13760  0.47670  1.0000 -0.0134708109
C   C37       1.0  0.89530  0.89150  0.00760  1.0000 -0.1827701303
C   C38       1.0  0.89150  0.89530  0.49240  1.0000 -0.1827701303
C   C39       1.0  0.10470  0.10850  0.99240  1.0000 -0.1827701303
C   C40       1.0  0.10850  0.10470  0.50760  1.0000 -0.1827701303
C   C41       1.0  0.98159  0.95159  0.98330  1.0000 0.0891868611
C   C42       1.0  0.95159  0.98159  0.51670  1.0000 0.0891868611
C   C43       1.0  0.01841  0.04841  0.01670  1.0000 0.0891868611
C   C44       1.0  0.04841  0.01841  0.48330  1.0000 0.0891868611
C   C45       1.0  0.03260  0.91540  0.92750  1.0000 -0.201315784
C   C46       1.0  0.91540  0.03260  0.57250  1.0000 -0.201315784
C   C47       1.0  0.96740  0.08460  0.07250  1.0000 -0.201315784
C   C48       1.0  0.08460  0.96740  0.42750  1.0000 -0.201315784
C   C49       1.0  0.99850  0.82410  0.90000  1.0000 -0.0387462369
C   C50       1.0  0.82410  0.99850  0.60000  1.0000 -0.0387462369
C   C51       1.0  0.00150  0.17590  0.10000  1.0000 -0.0387462369
C   C52       1.0  0.17590  0.00150  0.40000  1.0000 -0.0387462369
N   N1        1.0  0.91312  0.77064  0.92220  1.0000 0.3149827262
N   N2        1.0  0.77064  0.91312  0.57780  1.0000 0.3149827262
N   N3        1.0  0.08688  0.22936  0.07780  1.0000 0.3149827262
N   N4        1.0  0.22936  0.08688  0.42220  1.0000 0.3149827262
O   O1        1.0  0.70301  0.52021  0.88440  1.0000 -0.5600868324
O   O2        1.0  0.52021  0.70301  0.61560  1.0000 -0.5600868324
O   O3        1.0  0.29699  0.47979  0.11560  1.0000 -0.5600868324
O   O4        1.0  0.47979  0.29699  0.38440  1.0000 -0.5600868324
O   O5        1.0  0.87634  0.41770  0.06540  1.0000 -0.5501991371
O   O6        1.0  0.41770  0.87634  0.43460  1.0000 -0.5501991371
O   O7        1.0  0.12366  0.58230  0.93460  1.0000 -0.5501991371
O   O8        1.0  0.58230  0.12366  0.56540  1.0000 -0.5501991371
O   O9        1.0  0.38185  0.21765  0.18620  1.0000 -0.5783427666
O   O10       1.0  0.21765  0.38185  0.31380  1.0000 -0.5783427666
O   O11       1.0  0.61815  0.78235  0.81380  1.0000 -0.5783427666
O   O12       1.0  0.78235  0.61815  0.68620  1.0000 -0.5783427666
O   O13       1.0  0.54941  0.08337  0.35210  1.0000 -0.5501991371
O   O14       1.0  0.08337  0.54941  0.14790  1.0000 -0.5501991371
O   O15       1.0  0.45059  0.91663  0.64790  1.0000 -0.5501991371
O   O16       1.0  0.91663  0.45059  0.85210  1.0000 -0.5501991371
O   O17       1.0  0.87947  0.68449  0.89040  1.0000 -0.5054769377
O   O18       1.0  0.68449  0.87947  0.60960  1.0000 -0.5040465454
O   O19       1.0  0.12053  0.31551  0.10960  1.0000 -0.5040465454
O   O20       1.0  0.31551  0.12053  0.39040  1.0000 -0.5054769377
