# DDEC6 charges by PACMAN v1.1 (https://github.com/mtap-research/PACMAN-charge/)
data_2003[Cu][rob]3[ASR]2
_chemical_formula_sum              "Cu4 H40 C40 N4 O16"
_cell_length_a       12.5347
_cell_length_b       12.5347
_cell_length_c       8.5699
_cell_angle_alpha    80.6416
_cell_angle_beta     99.3584
_cell_angle_gamma    116.789

_symmetry_space_group_name_H-M    "P 1"
_symmetry_Int_Tables_number       1

loop_
  _symmetry_equiv_pos_as_xyz
  'x, y, z'

loop_
  _atom_site_type_symbol
  _atom_site_label
  _atom_site_symmetry_multiplicity
  _atom_site_fract_x
  _atom_site_fract_y
  _atom_site_fract_z
  _atom_site_occupancy
  _atom_site_charge
Cu  Cu1       1.0  0.40326  0.00762  0.92432  1.0000 0.7423991817
Cu  Cu2       1.0  0.00762  0.40326  0.57568  1.0000 0.7423991817
Cu  Cu3       1.0  0.59674  0.99238  0.07568  1.0000 0.7423991817
Cu  Cu4       1.0  0.99238  0.59674  0.42432  1.0000 0.7423991817
H   H1        1.0  0.73340  0.34500  0.74780  1.0000 0.1421124148
H   H2        1.0  0.34500  0.73340  0.75220  1.0000 0.1421124148
H   H3        1.0  0.26660  0.65500  0.25220  1.0000 0.1421124148
H   H4        1.0  0.65500  0.26660  0.24780  1.0000 0.1421124148
H   H5        1.0  0.64440  0.38680  0.80490  1.0000 0.1301074918
H   H6        1.0  0.38680  0.64440  0.69510  1.0000 0.1301074918
H   H7        1.0  0.35560  0.61320  0.19510  1.0000 0.1301074918
H   H8        1.0  0.61320  0.35560  0.30490  1.0000 0.1301074918
H   H9        1.0  0.76350  0.43270  0.04760  1.0000 0.0912905182
H   H10       1.0  0.43270  0.76350  0.45240  1.0000 0.0912905182
H   H11       1.0  0.23650  0.56730  0.95240  1.0000 0.0912905182
H   H12       1.0  0.56730  0.23650  0.54760  1.0000 0.0912905182
H   H13       1.0  0.84890  0.38050  0.00300  1.0000 0.0984433922
H   H14       1.0  0.38050  0.84890  0.49700  1.0000 0.0984433922
H   H15       1.0  0.15110  0.61950  0.99700  1.0000 0.0984433922
H   H16       1.0  0.61950  0.15110  0.50300  1.0000 0.0984433922
H   H17       1.0  0.94330  0.59210  0.95880  1.0000 0.1421124148
H   H18       1.0  0.59210  0.94330  0.54120  1.0000 0.1421124148
H   H19       1.0  0.05670  0.40790  0.04120  1.0000 0.1421124148
H   H20       1.0  0.40790  0.05670  0.45880  1.0000 0.1421124148
H   H21       1.0  0.82910  0.59210  0.84390  1.0000 0.1301074918
H   H22       1.0  0.59210  0.82910  0.65610  1.0000 0.1301074918
H   H23       1.0  0.17090  0.40790  0.15610  1.0000 0.1301074918
H   H24       1.0  0.40790  0.17090  0.34390  1.0000 0.1301074918
H   H25       1.0  0.14230  0.83690  0.82360  1.0000 0.1129598874
H   H26       1.0  0.83690  0.14230  0.67640  1.0000 0.1129598874
H   H27       1.0  0.85770  0.16310  0.17640  1.0000 0.1129598874
H   H28       1.0  0.16310  0.85770  0.32360  1.0000 0.1129598874
H   H29       1.0  0.97850  0.82730  0.64790  1.0000 0.1301074918
H   H30       1.0  0.82730  0.97850  0.85210  1.0000 0.1301074918
H   H31       1.0  0.02150  0.17270  0.35210  1.0000 0.1301074918
H   H32       1.0  0.17270  0.02150  0.14790  1.0000 0.1301074918
H   H33       1.0  0.16610  0.17610  0.50440  1.0000 0.1301074918
H   H34       1.0  0.17610  0.16610  0.99560  1.0000 0.1301074918
H   H35       1.0  0.83390  0.82390  0.49560  1.0000 0.1301074918
H   H36       1.0  0.82390  0.83390  0.00440  1.0000 0.1301074918
H   H37       1.0  0.32500  0.17500  0.68250  1.0000 0.1129598874
H   H38       1.0  0.17500  0.32500  0.81750  1.0000 0.1129598874
H   H39       1.0  0.67500  0.82500  0.31750  1.0000 0.1129598874
H   H40       1.0  0.82500  0.67500  0.18250  1.0000 0.1129598874
C   C1        1.0  0.62246  0.21954  0.90590  1.0000 0.6202171999
C   C2        1.0  0.21954  0.62246  0.59410  1.0000 0.6202171999
C   C3        1.0  0.37754  0.78046  0.09410  1.0000 0.6202171999
C   C4        1.0  0.78046  0.37754  0.40590  1.0000 0.6202171999
C   C5        1.0  0.69782  0.34698  0.84170  1.0000 -0.3267420684
C   C6        1.0  0.34698  0.69782  0.65830  1.0000 -0.3267420684
C   C7        1.0  0.30218  0.65302  0.15830  1.0000 -0.3267420684
C   C8        1.0  0.65302  0.30218  0.34170  1.0000 -0.3267420684
C   C9        1.0  0.79858  0.42282  0.95860  1.0000 -0.0946836737
C   C10       1.0  0.42282  0.79858  0.54140  1.0000 -0.0946836737
C   C11       1.0  0.20142  0.57718  0.04140  1.0000 -0.0946836737
C   C12       1.0  0.57718  0.20142  0.45860  1.0000 -0.0946836737
C   C13       1.0  0.87783  0.54697  0.87960  1.0000 -0.3267420684
C   C14       1.0  0.54697  0.87783  0.62040  1.0000 -0.3267420684
C   C15       1.0  0.12217  0.45303  0.12040  1.0000 -0.3267420684
C   C16       1.0  0.45303  0.12217  0.37960  1.0000 -0.3267420684
C   C17       1.0  0.93161  0.53879  0.73860  1.0000 0.6202171999
C   C18       1.0  0.53879  0.93161  0.76140  1.0000 0.6202171999
C   C19       1.0  0.06839  0.46121  0.26140  1.0000 0.6202171999
C   C20       1.0  0.46121  0.06839  0.23860  1.0000 0.6202171999
C   C21       1.0  0.14733  0.90747  0.75810  1.0000 0.0912905182
C   C22       1.0  0.90747  0.14733  0.74190  1.0000 0.0912905182
C   C23       1.0  0.85267  0.09253  0.24190  1.0000 0.0912905182
C   C24       1.0  0.09253  0.85267  0.25810  1.0000 0.0912905182
C   C25       1.0  0.04900  0.90120  0.65310  1.0000 -0.1901758094
C   C26       1.0  0.90120  0.04900  0.84690  1.0000 -0.1901758094
C   C27       1.0  0.95100  0.09880  0.34690  1.0000 -0.1901758094
C   C28       1.0  0.09880  0.95100  0.15310  1.0000 -0.1901758094
C   C29       1.0  0.05258  0.00142  0.55600  1.0000 0.0984433922
C   C30       1.0  0.00142  0.05258  0.94400  1.0000 0.0984433922
C   C31       1.0  0.94742  0.99858  0.44400  1.0000 0.0984433922
C   C32       1.0  0.99858  0.94742  0.05600  1.0000 0.0984433922
C   C33       1.0  0.15808  0.10432  0.56900  1.0000 -0.1901758094
C   C34       1.0  0.10432  0.15808  0.93100  1.0000 -0.1901758094
C   C35       1.0  0.84192  0.89568  0.43100  1.0000 -0.1901758094
C   C36       1.0  0.89568  0.84192  0.06900  1.0000 -0.1901758094
C   C37       1.0  0.25268  0.10292  0.67670  1.0000 0.0779237966
C   C38       1.0  0.10292  0.25268  0.82330  1.0000 0.0779237966
C   C39       1.0  0.74732  0.89708  0.32330  1.0000 0.0779237966
C   C40       1.0  0.89708  0.74732  0.17670  1.0000 0.0779237966
N   N1        1.0  0.24812  0.00728  0.77170  1.0000 -0.2260030773
N   N2        1.0  0.00728  0.24812  0.72830  1.0000 -0.2260030773
N   N3        1.0  0.75188  0.99272  0.22830  1.0000 -0.2260030773
N   N4        1.0  0.99272  0.75188  0.27170  1.0000 -0.2260030773
O   O1        1.0  0.51161  0.17693  0.86540  1.0000 -0.5289853257
O   O2        1.0  0.17693  0.51161  0.63460  1.0000 -0.5289853257
O   O3        1.0  0.48839  0.82307  0.13460  1.0000 -0.5289853257
O   O4        1.0  0.82307  0.48839  0.36540  1.0000 -0.5289853257
O   O5        1.0  0.67573  0.16305  0.99090  1.0000 -0.5289853257
O   O6        1.0  0.16305  0.67573  0.50910  1.0000 -0.5289853257
O   O7        1.0  0.32427  0.83695  0.00910  1.0000 -0.5289853257
O   O8        1.0  0.83695  0.32427  0.49090  1.0000 -0.5289853257
O   O9        1.0  0.96162  0.45496  0.74880  1.0000 -0.5220042509
O   O10       1.0  0.45496  0.96162  0.75120  1.0000 -0.5220042509
O   O11       1.0  0.03838  0.54504  0.25120  1.0000 -0.5220042509
O   O12       1.0  0.54504  0.03838  0.24880  1.0000 -0.5220042509
O   O13       1.0  0.94130  0.61526  0.61990  1.0000 -0.5363023621
O   O14       1.0  0.61526  0.94130  0.88010  1.0000 -0.5363023621
O   O15       1.0  0.05870  0.38474  0.38010  1.0000 -0.5363023621
O   O16       1.0  0.38474  0.05870  0.11990  1.0000 -0.5363023621
