# DDEC6 charges by PACMAN v1.1 (https://github.com/mtap-research/PACMAN-charge/)
data_2003[Cu][rob]3[ASR]6
_chemical_formula_sum              "Cu4 H48 C44 N4 O16"
_cell_length_a       13.7646
_cell_length_b       13.7646
_cell_length_c       8.6313
_cell_angle_alpha    88.7031
_cell_angle_beta     91.2969
_cell_angle_gamma    123.393

_symmetry_space_group_name_H-M    "P 1"
_symmetry_Int_Tables_number       1

loop_
  _symmetry_equiv_pos_as_xyz
  'x, y, z'

loop_
  _atom_site_type_symbol
  _atom_site_label
  _atom_site_symmetry_multiplicity
  _atom_site_fract_x
  _atom_site_fract_y
  _atom_site_fract_z
  _atom_site_occupancy
  _atom_site_charge
Cu  Cu1       1.0  0.59045  0.00095  0.55394  1.0000 0.7492039671
Cu  Cu2       1.0  0.00095  0.59045  0.94606  1.0000 0.7492039671
Cu  Cu3       1.0  0.40955  0.99905  0.44606  1.0000 0.7492039671
Cu  Cu4       1.0  0.99905  0.40955  0.05394  1.0000 0.7492039671
H   H1        1.0  0.73760  0.34300  0.27530  1.0000 0.1398484057
H   H2        1.0  0.34300  0.73760  0.22470  1.0000 0.1398484057
H   H3        1.0  0.26240  0.65700  0.72470  1.0000 0.1398484057
H   H4        1.0  0.65700  0.26240  0.77530  1.0000 0.1398484057
H   H5        1.0  0.65950  0.37290  0.37100  1.0000 0.1309274065
H   H6        1.0  0.37290  0.65950  0.12900  1.0000 0.1309274065
H   H7        1.0  0.34050  0.62710  0.62900  1.0000 0.1309274065
H   H8        1.0  0.62710  0.34050  0.87100  1.0000 0.1309274065
H   H9        1.0  0.78420  0.42740  0.58540  1.0000 0.0981780814
H   H10       1.0  0.42740  0.78420  0.91460  1.0000 0.0981780814
H   H11       1.0  0.21580  0.57260  0.41460  1.0000 0.0981780814
H   H12       1.0  0.57260  0.21580  0.08540  1.0000 0.0981780814
H   H13       1.0  0.85730  0.38390  0.50470  1.0000 0.0981780814
H   H14       1.0  0.38390  0.85730  0.99530  1.0000 0.0981780814
H   H15       1.0  0.14270  0.61610  0.49530  1.0000 0.0981780814
H   H16       1.0  0.61610  0.14270  0.00470  1.0000 0.0981780814
H   H17       1.0  0.95700  0.58960  0.48350  1.0000 0.1398484057
H   H18       1.0  0.58960  0.95700  0.01650  1.0000 0.1398484057
H   H19       1.0  0.04300  0.41040  0.51650  1.0000 0.1398484057
H   H20       1.0  0.41040  0.04300  0.98350  1.0000 0.1398484057
H   H21       1.0  0.84710  0.57690  0.39520  1.0000 0.1196572255
H   H22       1.0  0.57690  0.84710  0.10480  1.0000 0.1196572255
H   H23       1.0  0.15290  0.42310  0.60480  1.0000 0.1196572255
H   H24       1.0  0.42310  0.15290  0.89520  1.0000 0.1196572255
H   H25       1.0  0.82220  0.17080  0.71790  1.0000 0.1196572255
H   H26       1.0  0.17080  0.82220  0.78210  1.0000 0.1196572255
H   H27       1.0  0.17780  0.82920  0.28210  1.0000 0.1196572255
H   H28       1.0  0.82920  0.17780  0.21790  1.0000 0.1196572255
H   H29       1.0  0.94630  0.17430  0.90740  1.0000 0.1398484057
H   H30       1.0  0.17430  0.94630  0.59260  1.0000 0.1398484057
H   H31       1.0  0.05370  0.82570  0.09260  1.0000 0.1398484057
H   H32       1.0  0.82570  0.05370  0.40740  1.0000 0.1398484057
H   H33       1.0  0.76000  0.82400  0.90000  1.0000 0.1309274065
H   H34       1.0  0.82400  0.76000  0.60000  1.0000 0.1309274065
H   H35       1.0  0.24000  0.17600  0.10000  1.0000 0.1309274065
H   H36       1.0  0.17600  0.24000  0.40000  1.0000 0.1309274065
H   H37       1.0  0.64090  0.82930  0.71210  1.0000 0.1093294082
H   H38       1.0  0.82930  0.64090  0.78790  1.0000 0.1093294082
H   H39       1.0  0.35910  0.17070  0.28790  1.0000 0.1093294082
H   H40       1.0  0.17070  0.35910  0.21210  1.0000 0.1093294082
H   H41       1.0  0.98320  0.06700  0.10810  1.0000 0.1093294082
H   H42       1.0  0.06700  0.98320  0.39190  1.0000 0.1093294082
H   H43       1.0  0.01680  0.93300  0.89190  1.0000 0.1093294082
H   H44       1.0  0.93300  0.01680  0.60810  1.0000 0.1093294082
H   H45       1.0  0.90820  0.92760  0.10640  1.0000 0.1196572255
H   H46       1.0  0.92760  0.90820  0.39360  1.0000 0.1196572255
H   H47       1.0  0.09180  0.07240  0.89360  1.0000 0.1196572255
H   H48       1.0  0.07240  0.09180  0.60640  1.0000 0.1196572255
C   C1        1.0  0.63302  0.21538  0.43260  1.0000 0.6214356741
C   C2        1.0  0.21538  0.63302  0.06740  1.0000 0.6214356741
C   C3        1.0  0.36698  0.78462  0.56740  1.0000 0.6214356741
C   C4        1.0  0.78462  0.36698  0.93260  1.0000 0.6214356741
C   C5        1.0  0.70858  0.34082  0.38000  1.0000 -0.3295392001
C   C6        1.0  0.34082  0.70858  0.12000  1.0000 -0.3295392001
C   C7        1.0  0.29142  0.65918  0.62000  1.0000 -0.3295392001
C   C8        1.0  0.65918  0.29142  0.88000  1.0000 -0.3295392001
C   C9        1.0  0.81234  0.41966  0.48470  1.0000 -0.0967158059
C   C10       1.0  0.41966  0.81234  0.01530  1.0000 -0.0967158059
C   C11       1.0  0.18766  0.58034  0.51530  1.0000 -0.0967158059
C   C12       1.0  0.58034  0.18766  0.98470  1.0000 -0.0967158059
C   C13       1.0  0.89166  0.54034  0.41130  1.0000 -0.3295392001
C   C14       1.0  0.54034  0.89166  0.08870  1.0000 -0.3295392001
C   C15       1.0  0.10834  0.45966  0.58870  1.0000 -0.3295392001
C   C16       1.0  0.45966  0.10834  0.91130  1.0000 -0.3295392001
C   C17       1.0  0.94023  0.53617  0.25740  1.0000 0.6214356741
C   C18       1.0  0.53617  0.94023  0.24260  1.0000 0.6214356741
C   C19       1.0  0.05977  0.46383  0.74260  1.0000 0.6214356741
C   C20       1.0  0.46383  0.05977  0.75740  1.0000 0.6214356741
C   C21       1.0  0.80970  0.09930  0.75480  1.0000 0.0981780814
C   C22       1.0  0.09930  0.80970  0.74520  1.0000 0.0981780814
C   C23       1.0  0.19030  0.90070  0.24520  1.0000 0.0981780814
C   C24       1.0  0.90070  0.19030  0.25480  1.0000 0.0981780814
C   C25       1.0  0.88419  0.10201  0.86820  1.0000 -0.2036680708
C   C26       1.0  0.10201  0.88419  0.63180  1.0000 -0.2036680708
C   C27       1.0  0.11581  0.89799  0.13180  1.0000 -0.2036680708
C   C28       1.0  0.89799  0.11581  0.36820  1.0000 -0.2036680708
C   C29       1.0  0.86738  0.99882  0.92380  1.0000 0.162327355
C   C30       1.0  0.99882  0.86738  0.57620  1.0000 0.162327355
C   C31       1.0  0.13262  0.00118  0.07620  1.0000 0.162327355
C   C32       1.0  0.00118  0.13262  0.42380  1.0000 0.162327355
C   C33       1.0  0.77504  0.89676  0.86400  1.0000 -0.2137195299
C   C34       1.0  0.89676  0.77504  0.63600  1.0000 -0.2137195299
C   C35       1.0  0.22496  0.10324  0.13600  1.0000 -0.2137195299
C   C36       1.0  0.10324  0.22496  0.36400  1.0000 -0.2137195299
C   C37       1.0  0.70451  0.90069  0.75160  1.0000 0.0781829359
C   C38       1.0  0.90069  0.70451  0.74840  1.0000 0.0781829359
C   C39       1.0  0.29549  0.09931  0.24840  1.0000 0.0781829359
C   C40       1.0  0.09931  0.29549  0.25160  1.0000 0.0781829359
C   C41       1.0  0.95072  0.99848  0.04040  1.0000 -0.25049494
C   C42       1.0  0.99848  0.95072  0.45960  1.0000 -0.25049494
C   C43       1.0  0.04928  0.00152  0.95960  1.0000 -0.25049494
C   C44       1.0  0.00152  0.04928  0.54040  1.0000 -0.25049494
N   N1        1.0  0.72112  0.00014  0.69550  1.0000 -0.25049494
N   N2        1.0  0.00014  0.72112  0.80450  1.0000 -0.25049494
N   N3        1.0  0.27888  0.99986  0.30450  1.0000 -0.25049494
N   N4        1.0  0.99986  0.27888  0.19550  1.0000 -0.25049494
O   O1        1.0  0.68028  0.16692  0.49270  1.0000 -0.5238559971
O   O2        1.0  0.16692  0.68028  0.00730  1.0000 -0.5238559971
O   O3        1.0  0.31972  0.83308  0.50730  1.0000 -0.5238559971
O   O4        1.0  0.83308  0.31972  0.99270  1.0000 -0.5238559971
O   O5        1.0  0.52557  0.16529  0.40840  1.0000 -0.5336966345
O   O6        1.0  0.16529  0.52557  0.09160  1.0000 -0.5336966345
O   O7        1.0  0.47443  0.83471  0.59160  1.0000 -0.5336966345
O   O8        1.0  0.83471  0.47443  0.90840  1.0000 -0.5336966345
O   O9        1.0  0.95677  0.60999  0.15360  1.0000 -0.5396129618
O   O10       1.0  0.60999  0.95677  0.34640  1.0000 -0.5396129618
O   O11       1.0  0.04323  0.39001  0.84640  1.0000 -0.5396129618
O   O12       1.0  0.39001  0.04323  0.65360  1.0000 -0.5396129618
O   O13       1.0  0.96006  0.45916  0.24290  1.0000 -0.5148130933
O   O14       1.0  0.45916  0.96006  0.25710  1.0000 -0.5148130933
O   O15       1.0  0.03994  0.54084  0.75710  1.0000 -0.5148130933
O   O16       1.0  0.54084  0.03994  0.74290  1.0000 -0.5148130933
