# DDEC6 charges by PACMAN v1.1 (https://github.com/mtap-research/PACMAN-charge/)
data_MAKXAZ_ASR_pacman
_symmetry_space_group_name_H-M   'P 1'
_cell_length_a   13.62610000
_cell_length_b   13.62610000
_cell_length_c   24.93410000
_cell_angle_alpha   72.11160000
_cell_angle_beta   107.88800000
_cell_angle_gamma   151.79600000
_symmetry_Int_Tables_number   1
_chemical_formula_structural   ZnH20C26(NO2)2
_chemical_formula_sum   'Zn4 H80 C104 N8 O16'
_cell_volume   2075.34457593
_cell_formula_units_Z   4
loop_
 _symmetry_equiv_pos_site_id
 _symmetry_equiv_pos_as_xyz
  1  'x, y, z'
loop_
 _atom_site_type_symbol
 _atom_site_label
 _atom_site_symmetry_multiplicity
 _atom_site_fract_x
 _atom_site_fract_y
 _atom_site_fract_z
 _atom_site_occupancy
 _atom_site_charge
Zn  Zn1  1  0.06153000  0.18993000  0.96912000  1.0 0.739216223
Zn  Zn2  1  0.18993000  0.06153000  0.53088000  1.0 0.739216223
Zn  Zn3  1  0.93847000  0.81007000  0.03088000  1.0 0.739216223
Zn  Zn4  1  0.81007000  0.93847000  0.46912000  1.0 0.739216223
H  H1  1  0.55990000  0.78270000  0.83100000  1.0 0.1182211121
H  H2  1  0.78270000  0.55990000  0.66900000  1.0 0.1182211121
H  H3  1  0.44010000  0.21730000  0.16900000  1.0 0.1182211121
H  H4  1  0.21730000  0.44010000  0.33100000  1.0 0.1182211121
H  H5  1  0.38040000  0.59540000  0.75330000  1.0 0.1182211121
H  H6  1  0.59540000  0.38040000  0.74670000  1.0 0.1182211121
H  H7  1  0.61960000  0.40460000  0.24670000  1.0 0.1182211121
H  H8  1  0.40460000  0.61960000  0.25330000  1.0 0.1182211121
H  H9  1  0.92740000  0.04240000  0.69070000  1.0 0.1182211121
H  H10  1  0.04240000  0.92740000  0.80930000  1.0 0.1182211121
H  H11  1  0.07260000  0.95760000  0.30930000  1.0 0.1182211121
H  H12  1  0.95760000  0.07260000  0.19070000  1.0 0.1182211121
H  H13  1  0.10660000  0.23480000  0.76720000  1.0 0.1182211121
H  H14  1  0.23480000  0.10660000  0.73280000  1.0 0.1182211121
H  H15  1  0.89340000  0.76520000  0.23280000  1.0 0.1182211121
H  H16  1  0.76520000  0.89340000  0.26720000  1.0 0.1182211121
H  H17  1  0.25140000  0.51260000  0.66350000  1.0 0.1182211121
H  H18  1  0.51260000  0.25140000  0.83650000  1.0 0.1182211121
H  H19  1  0.74860000  0.48740000  0.33650000  1.0 0.1182211121
H  H20  1  0.48740000  0.74860000  0.16350000  1.0 0.1182211121
H  H21  1  0.06520000  0.29000000  0.59620000  1.0 0.1112639826
H  H22  1  0.29000000  0.06520000  0.90380000  1.0 0.1112639826
H  H23  1  0.93480000  0.71000000  0.40380000  1.0 0.1112639826
H  H24  1  0.71000000  0.93480000  0.09620000  1.0 0.1112639826
H  H25  1  0.56630000  0.56090000  0.58650000  1.0 0.1265336662
H  H26  1  0.56090000  0.56630000  0.91350000  1.0 0.1265336662
H  H27  1  0.43370000  0.43910000  0.41350000  1.0 0.1265336662
H  H28  1  0.43910000  0.43370000  0.08650000  1.0 0.1265336662
H  H29  1  0.75250000  0.78290000  0.65400000  1.0 0.1182211121
H  H30  1  0.78290000  0.75250000  0.84600000  1.0 0.1182211121
H  H31  1  0.24750000  0.21710000  0.34600000  1.0 0.1182211121
H  H32  1  0.21710000  0.24750000  0.15400000  1.0 0.1182211121
H  H33  1  0.45600000  0.66760000  0.92430000  1.0 0.1265336662
H  H34  1  0.66760000  0.45600000  0.57570000  1.0 0.1265336662
H  H35  1  0.54400000  0.33240000  0.07570000  1.0 0.1265336662
H  H36  1  0.33240000  0.54400000  0.42430000  1.0 0.1265336662
H  H37  1  0.57270000  0.93330000  0.92390000  1.0 0.1112639826
H  H38  1  0.93330000  0.57270000  0.57610000  1.0 0.1112639826
H  H39  1  0.42730000  0.06670000  0.07610000  1.0 0.1112639826
H  H40  1  0.06670000  0.42730000  0.42390000  1.0 0.1112639826
H  H41  1  0.13040000  0.56180000  0.02780000  1.0 0.0724043936
H  H42  1  0.56180000  0.13040000  0.47220000  1.0 0.0724043936
H  H43  1  0.86960000  0.43820000  0.97220000  1.0 0.0724043936
H  H44  1  0.43820000  0.86960000  0.52780000  1.0 0.0724043936
H  H45  1  0.01360000  0.29620000  0.02820000  1.0 0.1182211121
H  H46  1  0.29620000  0.01360000  0.47180000  1.0 0.1182211121
H  H47  1  0.98640000  0.70380000  0.97180000  1.0 0.1182211121
H  H48  1  0.70380000  0.98640000  0.52820000  1.0 0.1182211121
H  H49  1  0.31690000  0.88550000  0.96820000  1.0 0.0794999052
H  H50  1  0.88550000  0.31690000  0.53180000  1.0 0.0794999052
H  H51  1  0.68310000  0.11450000  0.03180000  1.0 0.0794999052
H  H52  1  0.11450000  0.68310000  0.46820000  1.0 0.0794999052
H  H53  1  0.52450000  0.04690000  0.94190000  1.0 0.0794999052
H  H54  1  0.04690000  0.52450000  0.55810000  1.0 0.0794999052
H  H55  1  0.47550000  0.95310000  0.05810000  1.0 0.0794999052
H  H56  1  0.95310000  0.47550000  0.44190000  1.0 0.0794999052
H  H57  1  0.41180000  0.62160000  0.92150000  1.0 0.1265336662
H  H58  1  0.62160000  0.41180000  0.57850000  1.0 0.1265336662
H  H59  1  0.58820000  0.37840000  0.07850000  1.0 0.1265336662
H  H60  1  0.37840000  0.58820000  0.42150000  1.0 0.1265336662
H  H61  1  0.60860000  0.93140000  0.93460000  1.0 0.1182211121
H  H62  1  0.93140000  0.60860000  0.56540000  1.0 0.1182211121
H  H63  1  0.39140000  0.06860000  0.06540000  1.0 0.1182211121
H  H64  1  0.06860000  0.39140000  0.43460000  1.0 0.1182211121
H  H65  1  0.21420000  0.61800000  0.04700000  1.0 0.0794999052
H  H66  1  0.61800000  0.21420000  0.45300000  1.0 0.0794999052
H  H67  1  0.78580000  0.38200000  0.95300000  1.0 0.0794999052
H  H68  1  0.38200000  0.78580000  0.54700000  1.0 0.0794999052
H  H69  1  0.01740000  0.30820000  0.03390000  1.0 0.1112639826
H  H70  1  0.30820000  0.01740000  0.46610000  1.0 0.1112639826
H  H71  1  0.98260000  0.69180000  0.96610000  1.0 0.1112639826
H  H72  1  0.69180000  0.98260000  0.53390000  1.0 0.1112639826
H  H73  1  0.66220000  0.11300000  0.97470000  1.0 0.0794999052
H  H74  1  0.11300000  0.66220000  0.52530000  1.0 0.0794999052
H  H75  1  0.33780000  0.88700000  0.02530000  1.0 0.0794999052
H  H76  1  0.88700000  0.33780000  0.47470000  1.0 0.0794999052
H  H77  1  0.62750000  0.04010000  0.04030000  1.0 0.0900896715
H  H78  1  0.04010000  0.62750000  0.45970000  1.0 0.0900896715
H  H79  1  0.37250000  0.95990000  0.95970000  1.0 0.0900896715
H  H80  1  0.95990000  0.37250000  0.54030000  1.0 0.0900896715
C  C1  1  0.97100000  0.14460000  0.85892000  1.0 0.5428709533
C  C2  1  0.14460000  0.97100000  0.64108000  1.0 0.5428709533
C  C3  1  0.02900000  0.85540000  0.14108000  1.0 0.5428709533
C  C4  1  0.85540000  0.02900000  0.35892000  1.0 0.5428709533
C  C5  1  0.85205000  0.02775000  0.80730000  1.0 -0.0188378826
C  C6  1  0.02775000  0.85205000  0.69270000  1.0 -0.0188378826
C  C7  1  0.14795000  0.97225000  0.19270000  1.0 -0.0188378826
C  C8  1  0.97225000  0.14795000  0.30730000  1.0 -0.0188378826
C  C9  1  0.63516000  0.83644000  0.80237000  1.0 -0.0982181573
C  C10  1  0.83644000  0.63516000  0.69763000  1.0 -0.0982181573
C  C11  1  0.36484000  0.16356000  0.19763000  1.0 -0.0982181573
C  C12  1  0.16356000  0.36484000  0.30237000  1.0 -0.0982181573
C  C13  1  0.52837000  0.72403000  0.75638000  1.0 -0.1394904359
C  C14  1  0.72403000  0.52837000  0.74362000  1.0 -0.1394904359
C  C15  1  0.47163000  0.27597000  0.24362000  1.0 -0.1394904359
C  C16  1  0.27597000  0.47163000  0.25638000  1.0 -0.1394904359
C  C17  1  0.63474000  0.79646000  0.71411000  1.0 0.0794999052
C  C18  1  0.79646000  0.63474000  0.78589000  1.0 0.0794999052
C  C19  1  0.36526000  0.20354000  0.28589000  1.0 0.0794999052
C  C20  1  0.20354000  0.36526000  0.21411000  1.0 0.0794999052
C  C21  1  0.85170000  0.98890000  0.71910000  1.0 -0.1468916204
C  C22  1  0.98890000  0.85170000  0.78090000  1.0 -0.1468916204
C  C23  1  0.14830000  0.01110000  0.28090000  1.0 -0.1468916204
C  C24  1  0.01110000  0.14830000  0.21910000  1.0 -0.1468916204
C  C25  1  0.95871000  0.10329000  0.76484000  1.0 -0.0982181573
C  C26  1  0.10329000  0.95871000  0.73516000  1.0 -0.0982181573
C  C27  1  0.04129000  0.89671000  0.23516000  1.0 -0.0982181573
C  C28  1  0.89671000  0.04129000  0.26484000  1.0 -0.0982181573
C  C29  1  0.51995000  0.66666667  0.66738000  1.0 0.0794999052
C  C30  1  0.66666667  0.51995000  0.83262000  1.0 0.0794999052
C  C31  1  0.48005000  0.33333333  0.33262000  1.0 0.0794999052
C  C32  1  0.33333333  0.48005000  0.16738000  1.0 0.0794999052
C  C33  1  0.31521000  0.52099000  0.64863000  1.0 -0.2070005689
C  C34  1  0.52099000  0.31521000  0.85137000  1.0 -0.2070005689
C  C35  1  0.68479000  0.47901000  0.35137000  1.0 -0.2070005689
C  C36  1  0.47901000  0.68479000  0.14863000  1.0 -0.2070005689
C  C37  1  0.20461000  0.38879000  0.60848000  1.0 -0.2192913596
C  C38  1  0.38879000  0.20461000  0.89152000  1.0 -0.2192913596
C  C39  1  0.79539000  0.61121000  0.39152000  1.0 -0.2192913596
C  C40  1  0.61121000  0.79539000  0.10848000  1.0 -0.2192913596
C  C41  1  0.29475000  0.39845000  0.58571000  1.0 -0.026234508
C  C42  1  0.39845000  0.29475000  0.91429000  1.0 -0.026234508
C  C43  1  0.70525000  0.60155000  0.41429000  1.0 -0.026234508
C  C44  1  0.60155000  0.70525000  0.08571000  1.0 -0.026234508
C  C45  1  0.50077000  0.54863000  0.60262000  1.0 -0.0902901594
C  C46  1  0.54863000  0.50077000  0.89738000  1.0 -0.0902901594
C  C47  1  0.49923000  0.45137000  0.39738000  1.0 -0.0902901594
C  C48  1  0.45137000  0.49923000  0.10262000  1.0 -0.0902901594
C  C49  1  0.61147000  0.68073000  0.64290000  1.0 -0.1272251498
C  C50  1  0.68073000  0.61147000  0.85710000  1.0 -0.1272251498
C  C51  1  0.38853000  0.31927000  0.35710000  1.0 -0.1272251498
C  C52  1  0.31927000  0.38853000  0.14290000  1.0 -0.1272251498
C  C53  1  0.17114000  0.24806000  0.54510000  1.0 0.5277211215
C  C54  1  0.24806000  0.17114000  0.95490000  1.0 0.5277211215
C  C55  1  0.82886000  0.75194000  0.45490000  1.0 0.5277211215
C  C56  1  0.75194000  0.82886000  0.04510000  1.0 0.5277211215
C  C57  1  0.38990000  0.64610000  0.94530000  1.0 0.03569781
C  C58  1  0.64610000  0.38990000  0.55470000  1.0 0.03569781
C  C59  1  0.61010000  0.35390000  0.05470000  1.0 0.03569781
C  C60  1  0.35390000  0.61010000  0.44530000  1.0 0.03569781
C  C61  1  0.45930000  0.80390000  0.94510000  1.0 -0.1394904359
C  C62  1  0.80390000  0.45930000  0.55490000  1.0 -0.1394904359
C  C63  1  0.54070000  0.19610000  0.05490000  1.0 -0.1394904359
C  C64  1  0.19610000  0.54070000  0.44510000  1.0 -0.1394904359
C  C65  1  0.36260000  0.77260000  0.97580000  1.0 0.0900896715
C  C66  1  0.77260000  0.36260000  0.52420000  1.0 0.0900896715
C  C67  1  0.63740000  0.22740000  0.02420000  1.0 0.0900896715
C  C68  1  0.22740000  0.63740000  0.47580000  1.0 0.0900896715
C  C69  1  0.19650000  0.58330000  0.00680000  1.0 -0.0982181573
C  C70  1  0.58330000  0.19650000  0.49320000  1.0 -0.0982181573
C  C71  1  0.80350000  0.41670000  0.99320000  1.0 -0.0982181573
C  C72  1  0.41670000  0.80350000  0.50680000  1.0 -0.0982181573
C  C73  1  0.12710000  0.42550000  0.00700000  1.0 0.0093093276
C  C74  1  0.42550000  0.12710000  0.49300000  1.0 0.0093093276
C  C75  1  0.87290000  0.57450000  0.99300000  1.0 0.0093093276
C  C76  1  0.57450000  0.87290000  0.50700000  1.0 0.0093093276
C  C77  1  0.43890000  0.94530000  0.97440000  1.0 -0.1069937054
C  C78  1  0.94530000  0.43890000  0.52560000  1.0 -0.1069937054
C  C79  1  0.56110000  0.05470000  0.02560000  1.0 -0.1069937054
C  C80  1  0.05470000  0.56110000  0.47440000  1.0 -0.1069937054
C  C81  1  0.37170000  0.62090000  0.94700000  1.0 0.0986166741
C  C82  1  0.62090000  0.37170000  0.55300000  1.0 0.0986166741
C  C83  1  0.62830000  0.37910000  0.05300000  1.0 0.0986166741
C  C84  1  0.37910000  0.62830000  0.44700000  1.0 0.0986166741
C  C85  1  0.48860000  0.80500000  0.95480000  1.0 -0.1394904359
C  C86  1  0.80500000  0.48860000  0.54520000  1.0 -0.1394904359
C  C87  1  0.51140000  0.19500000  0.04520000  1.0 -0.1394904359
C  C88  1  0.19500000  0.51140000  0.45480000  1.0 -0.1394904359
C  C89  1  0.42990000  0.80390000  0.99210000  1.0 0.0900896715
C  C90  1  0.80390000  0.42990000  0.50790000  1.0 0.0900896715
C  C91  1  0.57010000  0.19610000  0.00790000  1.0 0.0900896715
C  C92  1  0.19610000  0.57010000  0.49210000  1.0 0.0900896715
C  C93  1  0.25430000  0.61870000  0.02150000  1.0 -0.0593393989
C  C94  1  0.61870000  0.25430000  0.47850000  1.0 -0.0593393989
C  C95  1  0.74570000  0.38130000  0.97850000  1.0 -0.0593393989
C  C96  1  0.38130000  0.74570000  0.52150000  1.0 -0.0593393989
C  C97  1  0.13740000  0.43480000  0.01370000  1.0 -0.0379500915
C  C98  1  0.43480000  0.13740000  0.48630000  1.0 -0.0379500915
C  C99  1  0.86260000  0.56520000  0.98630000  1.0 -0.0379500915
C  C100  1  0.56520000  0.86260000  0.51370000  1.0 -0.0379500915
C  C101  1  0.55420000  0.00100000  0.00200000  1.0 -0.0982181573
C  C102  1  0.00100000  0.55420000  0.49800000  1.0 -0.0982181573
C  C103  1  0.44580000  0.99900000  0.99800000  1.0 -0.0982181573
C  C104  1  0.99900000  0.44580000  0.50200000  1.0 -0.0982181573
N  N1  1  0.22380000  0.45680000  0.97630000  1.0 -0.1935858879
N  N2  1  0.45680000  0.22380000  0.52370000  1.0 -0.1935858879
N  N3  1  0.77620000  0.54320000  0.02370000  1.0 -0.1935858879
N  N4  1  0.54320000  0.77620000  0.47630000  1.0 -0.1935858879
N  N5  1  0.19610000  0.43590000  0.97650000  1.0 -0.1963780526
N  N6  1  0.43590000  0.19610000  0.52350000  1.0 -0.1963780526
N  N7  1  0.80390000  0.56410000  0.02350000  1.0 -0.1963780526
N  N8  1  0.56410000  0.80390000  0.47650000  1.0 -0.1963780526
O  O1  1  0.86774000  0.03506000  0.90329000  1.0 -0.5877435658
O  O2  1  0.03506000  0.86774000  0.59671000  1.0 -0.5877435658
O  O3  1  0.13226000  0.96494000  0.09671000  1.0 -0.5877435658
O  O4  1  0.96494000  0.13226000  0.40329000  1.0 -0.5877435658
O  O5  1  0.15443000  0.33137000  0.85753000  1.0 -0.5444508646
O  O6  1  0.33137000  0.15443000  0.64247000  1.0 -0.5444508646
O  O7  1  0.84557000  0.66863000  0.14247000  1.0 -0.5444508646
O  O8  1  0.66863000  0.84557000  0.35753000  1.0 -0.5444508646
O  O9  1  0.25973000  0.26547000  0.52404000  1.0 -0.5120663498
O  O10  1  0.26547000  0.25973000  0.97596000  1.0 -0.5120663498
O  O11  1  0.74027000  0.73453000  0.47596000  1.0 -0.5120663498
O  O12  1  0.73453000  0.74027000  0.02404000  1.0 -0.5120663498
O  O13  1  0.98122000  0.10898000  0.53376000  1.0 -0.5466436897
O  O14  1  0.10898000  0.98122000  0.96624000  1.0 -0.5466436897
O  O15  1  0.01878000  0.89102000  0.46624000  1.0 -0.5466436897
O  O16  1  0.89102000  0.01878000  0.03376000  1.0 -0.5466436897
