# DDEC6 charges by PACMAN v1.1 (https://github.com/mtap-research/PACMAN-charge/)
data_2012[CuMo][dia]3[ASR]2
_chemical_formula_sum              "Cu12 Mo4 H80 C100 S12 I4 N20"
_cell_length_a       15.0373
_cell_length_b       15.0373
_cell_length_c       18.1026
_cell_angle_alpha    85.5277
_cell_angle_beta     94.4723
_cell_angle_gamma    89.9141

_symmetry_space_group_name_H-M    "P 1"
_symmetry_Int_Tables_number       1

loop_
  _symmetry_equiv_pos_as_xyz
  'x, y, z'

loop_
  _atom_site_type_symbol
  _atom_site_label
  _atom_site_symmetry_multiplicity
  _atom_site_fract_x
  _atom_site_fract_y
  _atom_site_fract_z
  _atom_site_occupancy
  _atom_site_charge
Cu  Cu1       1.0  0.76953  0.40623  0.52574  1.0000 0.2865038855
Cu  Cu2       1.0  0.40623  0.76953  0.97426  1.0000 0.2865038855
Cu  Cu3       1.0  0.62543  0.19631  0.48952  1.0000 0.2844638708
Cu  Cu4       1.0  0.19631  0.62543  0.01048  1.0000 0.2844638708
Cu  Cu5       1.0  0.80490  0.28100  0.35875  1.0000 0.308219379
Cu  Cu6       1.0  0.28100  0.80490  0.14125  1.0000 0.308219379
Cu  Cu7       1.0  0.23047  0.59377  0.47426  1.0000 0.2865038855
Cu  Cu8       1.0  0.59377  0.23047  0.02574  1.0000 0.2865038855
Cu  Cu9       1.0  0.37457  0.80369  0.51048  1.0000 0.2844638708
Cu  Cu10      1.0  0.80369  0.37457  0.98952  1.0000 0.2865038855
Cu  Cu11      1.0  0.19510  0.71900  0.64125  1.0000 0.308219379
Cu  Cu12      1.0  0.71900  0.19510  0.85875  1.0000 0.308219379
Mo  Mo1       1.0  0.80231  0.23281  0.50410  1.0000 0.7690400166
Mo  Mo2       1.0  0.23281  0.80231  0.99590  1.0000 0.7597361687
Mo  Mo3       1.0  0.19769  0.76719  0.49590  1.0000 0.7597361687
Mo  Mo4       1.0  0.76719  0.19769  0.00410  1.0000 0.7597361687
H   H1        1.0  0.88820  0.56640  0.56770  1.0000 0.1001116985
H   H2        1.0  0.56640  0.88820  0.93230  1.0000 0.1001116985
H   H3        1.0  0.96650  0.61550  0.66990  1.0000 0.1292506977
H   H4        1.0  0.61550  0.96650  0.83010  1.0000 0.1292506977
H   H5        1.0  0.85470  0.42070  0.79370  1.0000 0.1292506977
H   H6        1.0  0.42070  0.85470  0.70630  1.0000 0.1292506977
H   H7        1.0  0.78350  0.37510  0.68770  1.0000 0.1001116985
H   H8        1.0  0.37510  0.78350  0.81230  1.0000 0.1001116985
H   H9        1.0  0.05410  0.71670  0.89470  1.0000 0.0919242013
H   H10       1.0  0.71670  0.05410  0.60530  1.0000 0.0919242013
H   H11       1.0  0.96600  0.68360  0.79190  1.0000 0.1173928512
H   H12       1.0  0.68360  0.96600  0.70810  1.0000 0.1173928512
H   H13       1.0  0.99550  0.42630  0.86050  1.0000 0.1292506977
H   H14       1.0  0.42630  0.99550  0.63950  1.0000 0.1292506977
H   H15       1.0  0.08620  0.46540  0.95890  1.0000 0.1001116985
H   H16       1.0  0.46540  0.08620  0.54110  1.0000 0.1001116985
H   H17       1.0  0.33000  0.62000  0.19260  1.0000 0.1001116985
H   H18       1.0  0.62000  0.33000  0.30740  1.0000 0.1001116985
H   H19       1.0  0.42730  0.53930  0.27470  1.0000 0.1292506977
H   H20       1.0  0.53930  0.42730  0.22530  1.0000 0.1292506977
H   H21       1.0  0.52160  0.76780  0.34620  1.0000 0.1292506977
H   H22       1.0  0.76780  0.52160  0.15380  1.0000 0.1292506977
H   H23       1.0  0.41820  0.84180  0.26450  1.0000 0.0919242013
H   H24       1.0  0.84180  0.41820  0.23550  1.0000 0.0919242013
H   H25       1.0  0.58450  0.40530  0.46750  1.0000 0.0919242013
H   H26       1.0  0.40530  0.58450  0.03250  1.0000 0.0919242013
H   H27       1.0  0.47970  0.48290  0.39130  1.0000 0.1292506977
H   H28       1.0  0.48290  0.47970  0.10870  1.0000 0.1292506977
H   H29       1.0  0.64950  0.68410  0.37830  1.0000 0.1292506977
H   H30       1.0  0.68410  0.64950  0.12170  1.0000 0.1292506977
H   H31       1.0  0.74730  0.60230  0.45800  1.0000 0.1001116985
H   H32       1.0  0.60230  0.74730  0.04200  1.0000 0.1001116985
H   H33       1.0  0.19830  0.84270  0.28860  1.0000 0.1001116985
H   H34       1.0  0.84270  0.19830  0.21140  1.0000 0.1001116985
H   H35       1.0  0.10010  0.93710  0.33100  1.0000 0.1292506977
H   H36       1.0  0.93710  0.10010  0.16900  1.0000 0.1292506977
H   H37       1.0  0.09550  0.08010  0.13520  1.0000 0.1292506977
H   H38       1.0  0.08010  0.09550  0.36480  1.0000 0.1292506977
H   H39       1.0  0.19880  0.98440  0.10020  1.0000 0.1001116985
H   H40       1.0  0.98440  0.19880  0.39980  1.0000 0.1001116985
H   H41       1.0  0.11180  0.43360  0.43230  1.0000 0.1001116985
H   H42       1.0  0.43360  0.11180  0.06770  1.0000 0.1001116985
H   H43       1.0  0.03350  0.38450  0.33010  1.0000 0.1292506977
H   H44       1.0  0.38450  0.03350  0.16990  1.0000 0.1292506977
H   H45       1.0  0.14530  0.57930  0.20630  1.0000 0.1292506977
H   H46       1.0  0.57930  0.14530  0.29370  1.0000 0.1292506977
H   H47       1.0  0.21650  0.62490  0.31230  1.0000 0.1001116985
H   H48       1.0  0.62490  0.21650  0.18770  1.0000 0.1001116985
H   H49       1.0  0.94590  0.28330  0.10530  1.0000 0.0919242013
H   H50       1.0  0.28330  0.94590  0.39470  1.0000 0.0919242013
H   H51       1.0  0.03400  0.31640  0.20810  1.0000 0.1173928512
H   H52       1.0  0.31640  0.03400  0.29190  1.0000 0.1173928512
H   H53       1.0  0.00450  0.57370  0.13950  1.0000 0.1292506977
H   H54       1.0  0.57370  0.00450  0.36050  1.0000 0.1292506977
H   H55       1.0  0.91380  0.53460  0.04110  1.0000 0.1001116985
H   H56       1.0  0.53460  0.91380  0.45890  1.0000 0.1001116985
H   H57       1.0  0.67000  0.38000  0.80740  1.0000 0.1001116985
H   H58       1.0  0.38000  0.67000  0.69260  1.0000 0.1001116985
H   H59       1.0  0.57270  0.46070  0.72530  1.0000 0.1292506977
H   H60       1.0  0.46070  0.57270  0.77470  1.0000 0.1292506977
H   H61       1.0  0.47840  0.23220  0.65380  1.0000 0.1292506977
H   H62       1.0  0.23220  0.47840  0.84620  1.0000 0.1292506977
H   H63       1.0  0.58180  0.15820  0.73550  1.0000 0.0919242013
H   H64       1.0  0.15820  0.58180  0.76450  1.0000 0.0919242013
H   H65       1.0  0.41550  0.59470  0.53250  1.0000 0.0919242013
H   H66       1.0  0.59470  0.41550  0.96750  1.0000 0.0919242013
H   H67       1.0  0.52030  0.51710  0.60870  1.0000 0.1292506977
H   H68       1.0  0.51710  0.52030  0.89130  1.0000 0.1292506977
H   H69       1.0  0.35050  0.31590  0.62170  1.0000 0.1292506977
H   H70       1.0  0.31590  0.35050  0.87830  1.0000 0.1292506977
H   H71       1.0  0.25270  0.39770  0.54200  1.0000 0.1001116985
H   H72       1.0  0.39770  0.25270  0.95800  1.0000 0.1001116985
H   H73       1.0  0.80170  0.15730  0.71140  1.0000 0.1001116985
H   H74       1.0  0.15730  0.80170  0.78860  1.0000 0.1001116985
H   H75       1.0  0.89990  0.06290  0.66900  1.0000 0.1292506977
H   H76       1.0  0.06290  0.89990  0.83100  1.0000 0.1292506977
H   H77       1.0  0.90450  0.91990  0.86480  1.0000 0.1292506977
H   H78       1.0  0.91990  0.90450  0.63520  1.0000 0.1292506977
H   H79       1.0  0.80120  0.01560  0.89980  1.0000 0.1001116985
H   H80       1.0  0.01560  0.80120  0.60020  1.0000 0.1001116985
C   C1        1.0  0.88230  0.53610  0.61380  1.0000 0.071366644
C   C2        1.0  0.53610  0.88230  0.88620  1.0000 0.071366644
C   C3        1.0  0.92910  0.56670  0.67530  1.0000 -0.1988225872
C   C4        1.0  0.56670  0.92910  0.82470  1.0000 -0.1988225872
C   C5        1.0  0.92030  0.52450  0.74500  1.0000 0.1102010573
C   C6        1.0  0.52450  0.92030  0.75500  1.0000 0.1102010573
C   C7        1.0  0.86350  0.45130  0.74820  1.0000 -0.183357151
C   C8        1.0  0.45130  0.86350  0.75180  1.0000 -0.183357151
C   C9        1.0  0.82050  0.42450  0.68420  1.0000 0.071366644
C   C10       1.0  0.42450  0.82050  0.81580  1.0000 0.071366644
C   C11       1.0  0.04370  0.65710  0.88680  1.0000 0.071366644
C   C12       1.0  0.65710  0.04370  0.61320  1.0000 0.071366644
C   C13       1.0  0.99010  0.63770  0.82490  1.0000 -0.2056420611
C   C14       1.0  0.63770  0.99010  0.67510  1.0000 -0.2056420611
C   C15       1.0  0.97250  0.55090  0.81220  1.0000 0.1001116985
C   C16       1.0  0.55090  0.97250  0.68780  1.0000 0.1001116985
C   C17       1.0  0.00830  0.48610  0.86540  1.0000 -0.1910620104
C   C18       1.0  0.48610  0.00830  0.63460  1.0000 -0.1910620104
C   C19       1.0  0.06210  0.51010  0.92470  1.0000 0.071366644
C   C20       1.0  0.51010  0.06210  0.57530  1.0000 0.071366644
C   C21       1.0  0.36880  0.65060  0.22410  1.0000 0.071366644
C   C22       1.0  0.65060  0.36880  0.27590  1.0000 0.071366644
C   C23       1.0  0.42780  0.60120  0.27310  1.0000 -0.1988225872
C   C24       1.0  0.60120  0.42780  0.22690  1.0000 -0.1988225872
C   C25       1.0  0.48810  0.64390  0.31990  1.0000 0.1173928512
C   C26       1.0  0.64390  0.48810  0.18010  1.0000 0.1173928512
C   C27       1.0  0.48320  0.73580  0.31560  1.0000 -0.183357151
C   C28       1.0  0.73580  0.48320  0.18440  1.0000 -0.183357151
C   C29       1.0  0.42070  0.77990  0.26580  1.0000 0.071366644
C   C30       1.0  0.77990  0.42070  0.23420  1.0000 0.071366644
C   C31       1.0  0.59870  0.46250  0.44870  1.0000 0.071366644
C   C32       1.0  0.46250  0.59870  0.05130  1.0000 0.071366644
C   C33       1.0  0.53490  0.50850  0.40240  1.0000 -0.1910620104
C   C34       1.0  0.50850  0.53490  0.09760  1.0000 -0.1910620104
C   C35       1.0  0.55340  0.59300  0.37240  1.0000 0.1001116985
C   C36       1.0  0.59300  0.55340  0.12760  1.0000 0.1001116985
C   C37       1.0  0.63430  0.62650  0.39530  1.0000 -0.1988225872
C   C38       1.0  0.62650  0.63430  0.10470  1.0000 -0.1988225872
C   C39       1.0  0.69350  0.57630  0.44290  1.0000 0.0604731871
C   C40       1.0  0.57630  0.69350  0.05710  1.0000 0.0604731871
C   C41       1.0  0.17790  0.89170  0.25740  1.0000 0.0604731871
C   C42       1.0  0.89170  0.17790  0.24260  1.0000 0.0604731871
C   C43       1.0  0.11840  0.94760  0.28320  1.0000 -0.1988225872
C   C44       1.0  0.94760  0.11840  0.21680  1.0000 -0.1988225872
C   C45       1.0  0.08500  0.02100  0.23720  1.0000 0.1001116985
C   C46       1.0  0.02100  0.08500  0.26280  1.0000 0.1001116985
C   C47       1.0  0.11610  0.03250  0.16800  1.0000 -0.1988225872
C   C48       1.0  0.03250  0.11610  0.33200  1.0000 -0.1988225872
C   C49       1.0  0.17760  0.97400  0.14690  1.0000 0.0481476934
C   C50       1.0  0.97400  0.17760  0.35310  1.0000 0.0481476934
C   C51       1.0  0.11770  0.46390  0.38620  1.0000 0.071366644
C   C52       1.0  0.46390  0.11770  0.11380  1.0000 0.071366644
C   C53       1.0  0.07090  0.43330  0.32470  1.0000 -0.1988225872
C   C54       1.0  0.43330  0.07090  0.17530  1.0000 -0.1988225872
C   C55       1.0  0.07970  0.47550  0.25500  1.0000 0.1102010573
C   C56       1.0  0.47550  0.07970  0.24500  1.0000 0.1102010573
C   C57       1.0  0.13650  0.54870  0.25180  1.0000 -0.183357151
C   C58       1.0  0.54870  0.13650  0.24820  1.0000 -0.183357151
C   C59       1.0  0.17950  0.57550  0.31580  1.0000 0.071366644
C   C60       1.0  0.57550  0.17950  0.18420  1.0000 0.071366644
C   C61       1.0  0.95630  0.34290  0.11320  1.0000 0.071366644
C   C62       1.0  0.34290  0.95630  0.38680  1.0000 0.071366644
C   C63       1.0  0.00990  0.36230  0.17510  1.0000 -0.2056420611
C   C64       1.0  0.36230  0.00990  0.32490  1.0000 -0.2056420611
C   C65       1.0  0.02750  0.44910  0.18780  1.0000 0.1001116985
C   C66       1.0  0.44910  0.02750  0.31220  1.0000 0.1001116985
C   C67       1.0  0.99170  0.51390  0.13460  1.0000 -0.1910620104
C   C68       1.0  0.51390  0.99170  0.36540  1.0000 -0.1910620104
C   C69       1.0  0.93790  0.48990  0.07530  1.0000 0.071366644
C   C70       1.0  0.48990  0.93790  0.42470  1.0000 0.071366644
C   C71       1.0  0.63120  0.34940  0.77590  1.0000 0.071366644
C   C72       1.0  0.34940  0.63120  0.72410  1.0000 0.071366644
C   C73       1.0  0.57220  0.39880  0.72690  1.0000 -0.1988225872
C   C74       1.0  0.39880  0.57220  0.77310  1.0000 -0.1988225872
C   C75       1.0  0.51190  0.35610  0.68010  1.0000 0.1173928512
C   C76       1.0  0.35610  0.51190  0.81990  1.0000 0.1173928512
C   C77       1.0  0.51680  0.26420  0.68440  1.0000 -0.183357151
C   C78       1.0  0.26420  0.51680  0.81560  1.0000 -0.183357151
C   C79       1.0  0.57930  0.22010  0.73420  1.0000 0.071366644
C   C80       1.0  0.22010  0.57930  0.76580  1.0000 0.071366644
C   C81       1.0  0.40130  0.53750  0.55130  1.0000 0.071366644
C   C82       1.0  0.53750  0.40130  0.94870  1.0000 0.071366644
C   C83       1.0  0.46510  0.49150  0.59760  1.0000 -0.1910620104
C   C84       1.0  0.49150  0.46510  0.90240  1.0000 -0.1910620104
C   C85       1.0  0.44660  0.40700  0.62760  1.0000 0.1001116985
C   C86       1.0  0.40700  0.44660  0.87240  1.0000 0.1001116985
C   C87       1.0  0.36570  0.37350  0.60470  1.0000 -0.1988225872
C   C88       1.0  0.37350  0.36570  0.89530  1.0000 -0.1988225872
C   C89       1.0  0.30650  0.42370  0.55710  1.0000 0.0604731871
C   C90       1.0  0.42370  0.30650  0.94290  1.0000 0.0604731871
C   C91       1.0  0.82210  0.10830  0.74260  1.0000 0.0604731871
C   C92       1.0  0.10830  0.82210  0.75740  1.0000 0.0604731871
C   C93       1.0  0.88160  0.05240  0.71680  1.0000 -0.1988225872
C   C94       1.0  0.05240  0.88160  0.78320  1.0000 -0.1988225872
C   C95       1.0  0.91500  0.97900  0.76280  1.0000 0.1001116985
C   C96       1.0  0.97900  0.91500  0.73720  1.0000 0.1001116985
C   C97       1.0  0.88390  0.96750  0.83200  1.0000 -0.1988225872
C   C98       1.0  0.96750  0.88390  0.66800  1.0000 -0.1988225872
C   C99       1.0  0.82240  0.02600  0.85310  1.0000 0.0481476934
C   C100      1.0  0.02600  0.82240  0.64690  1.0000 0.0481476934
S   S1        1.0  0.69875  0.28191  0.57495  1.0000 -0.5515822338
S   S2        1.0  0.28191  0.69875  0.92505  1.0000 -0.5515822338
S   S3        1.0  0.87281  0.35375  0.45358  1.0000 -0.5726205575
S   S4        1.0  0.35375  0.87281  0.04642  1.0000 -0.5726205575
S   S5        1.0  0.72961  0.16283  0.41096  1.0000 -0.5297345536
S   S6        1.0  0.16283  0.72961  0.08904  1.0000 -0.5297345536
S   S7        1.0  0.30125  0.71809  0.42505  1.0000 -0.5515822338
S   S8        1.0  0.71809  0.30125  0.07495  1.0000 -0.5515822338
S   S9        1.0  0.12719  0.64625  0.54642  1.0000 -0.5726205575
S   S10       1.0  0.64625  0.12719  0.95358  1.0000 -0.5726205575
S   S11       1.0  0.27039  0.83717  0.58904  1.0000 -0.5297345536
S   S12       1.0  0.83717  0.27039  0.91096  1.0000 -0.5297345536
I   I1        1.0  0.47241  0.24669  0.42986  1.0000 -0.5377117561
I   I2        1.0  0.24669  0.47241  0.07014  1.0000 -0.5377117561
I   I3        1.0  0.52759  0.75331  0.57014  1.0000 -0.5377117561
I   I4        1.0  0.75331  0.52759  0.92986  1.0000 -0.5377117561
N   N1        1.0  0.82920  0.46560  0.61700  1.0000 -0.1910620104
N   N2        1.0  0.46560  0.82920  0.88300  1.0000 -0.1910620104
N   N3        1.0  0.08160  0.59520  0.93600  1.0000 -0.1910620104
N   N4        1.0  0.59520  0.08160  0.56400  1.0000 -0.1910620104
N   N5        1.0  0.36380  0.73900  0.21920  1.0000 -0.1910620104
N   N6        1.0  0.73900  0.36380  0.28080  1.0000 -0.1910620104
N   N7        1.0  0.67890  0.49290  0.46870  1.0000 -0.1910620104
N   N8        1.0  0.49290  0.67890  0.03130  1.0000 -0.1910620104
N   N9        1.0  0.20880  0.90240  0.19030  1.0000 -0.1910620104
N   N10       1.0  0.90240  0.20880  0.30970  1.0000 -0.1910620104
N   N11       1.0  0.17080  0.53440  0.38300  1.0000 -0.1910620104
N   N12       1.0  0.53440  0.17080  0.11700  1.0000 -0.1910620104
N   N13       1.0  0.91840  0.40480  0.06400  1.0000 -0.1910620104
N   N14       1.0  0.40480  0.91840  0.43600  1.0000 -0.1910620104
N   N15       1.0  0.63620  0.26100  0.78080  1.0000 -0.1910620104
N   N16       1.0  0.26100  0.63620  0.71920  1.0000 -0.1910620104
N   N17       1.0  0.32110  0.50710  0.53130  1.0000 -0.1910620104
N   N18       1.0  0.50710  0.32110  0.96870  1.0000 -0.1910620104
N   N19       1.0  0.79120  0.09760  0.80970  1.0000 -0.1910620104
N   N20       1.0  0.09760  0.79120  0.69030  1.0000 -0.1910620104
