# DDEC6 charges by PACMAN v1.1 (https://github.com/mtap-research/PACMAN-charge/)
data_MURCOR_ASR_pacman
_symmetry_space_group_name_H-M   'P 1'
_cell_length_a   14.36830000
_cell_length_b   14.36830000
_cell_length_c   15.39300000
_cell_angle_alpha   90.00000000
_cell_angle_beta   90.00000000
_cell_angle_gamma   120.00000000
_symmetry_Int_Tables_number   1
_chemical_formula_structural   Ho2Cu3H24(C4O5)6
_chemical_formula_sum   'Ho4 Cu6 H48 C48 O60'
_cell_volume   2752.10294736
_cell_formula_units_Z   2
loop_
 _symmetry_equiv_pos_site_id
 _symmetry_equiv_pos_as_xyz
  1  'x, y, z'
loop_
 _atom_site_type_symbol
 _atom_site_label
 _atom_site_symmetry_multiplicity
 _atom_site_fract_x
 _atom_site_fract_y
 _atom_site_fract_z
 _atom_site_occupancy
 _atom_site_charge
Ho  Ho1  1  0.33333333  0.66666667  0.25000000  1.0 1.9071838803
Ho  Ho2  1  0.66666667  0.33333333  0.25000000  1.0 1.9071838803
Ho  Ho3  1  0.66666667  0.33333333  0.75000000  1.0 1.9071838803
Ho  Ho4  1  0.33333333  0.66666667  0.75000000  1.0 1.9071838803
Cu  Cu1  1  0.00000000  0.50000000  0.00000000  1.0 0.9072899765
Cu  Cu2  1  0.50000000  0.50000000  0.00000000  1.0 0.9072899765
Cu  Cu3  1  0.50000000  0.00000000  0.00000000  1.0 0.9072899765
Cu  Cu4  1  0.50000000  0.00000000  0.50000000  1.0 0.9072899765
Cu  Cu5  1  0.50000000  0.50000000  0.50000000  1.0 0.9072899765
Cu  Cu6  1  0.00000000  0.50000000  0.50000000  1.0 0.9072899765
H  H1  1  0.08507000  0.36330000  0.22780000  1.0 0.1209254873
H  H2  1  0.63670000  0.72177000  0.22780000  1.0 0.1209254873
H  H3  1  0.27823000  0.91493000  0.22780000  1.0 0.1209254873
H  H4  1  0.36330000  0.27823000  0.22780000  1.0 0.1209254873
H  H5  1  0.72177000  0.08507000  0.22780000  1.0 0.1209254873
H  H6  1  0.36330000  0.08507000  0.27220000  1.0 0.1209254873
H  H7  1  0.27823000  0.36330000  0.27220000  1.0 0.1209254873
H  H8  1  0.08507000  0.72177000  0.27220000  1.0 0.1209254873
H  H9  1  0.91493000  0.63670000  0.22780000  1.0 0.1209254873
H  H10  1  0.72177000  0.63670000  0.27220000  1.0 0.1209254873
H  H11  1  0.91493000  0.27823000  0.27220000  1.0 0.1209254873
H  H12  1  0.63670000  0.91493000  0.27220000  1.0 0.1209254873
H  H13  1  0.91493000  0.63670000  0.77220000  1.0 0.1209254873
H  H14  1  0.36330000  0.27823000  0.77220000  1.0 0.1209254873
H  H15  1  0.72177000  0.08507000  0.77220000  1.0 0.1209254873
H  H16  1  0.63670000  0.72177000  0.77220000  1.0 0.1209254873
H  H17  1  0.27823000  0.91493000  0.77220000  1.0 0.1209254873
H  H18  1  0.63670000  0.91493000  0.72780000  1.0 0.1209254873
H  H19  1  0.72177000  0.63670000  0.72780000  1.0 0.1209254873
H  H20  1  0.91493000  0.27823000  0.72780000  1.0 0.1209254873
H  H21  1  0.08507000  0.36330000  0.77220000  1.0 0.1209254873
H  H22  1  0.27823000  0.36330000  0.72780000  1.0 0.1209254873
H  H23  1  0.08507000  0.72177000  0.72780000  1.0 0.1209254873
H  H24  1  0.36330000  0.08507000  0.72780000  1.0 0.1209254873
H  H25  1  0.16527000  0.36360000  0.15810000  1.0 0.1406274086
H  H26  1  0.63640000  0.80167000  0.15810000  1.0 0.1406274086
H  H27  1  0.19833000  0.83473000  0.15810000  1.0 0.1406274086
H  H28  1  0.36360000  0.19833000  0.15810000  1.0 0.1406274086
H  H29  1  0.80167000  0.16527000  0.15810000  1.0 0.1406274086
H  H30  1  0.36360000  0.16527000  0.34190000  1.0 0.1406274086
H  H31  1  0.19833000  0.36360000  0.34190000  1.0 0.1406274086
H  H32  1  0.16527000  0.80167000  0.34190000  1.0 0.1406274086
H  H33  1  0.83473000  0.63640000  0.15810000  1.0 0.1406274086
H  H34  1  0.80167000  0.63640000  0.34190000  1.0 0.1406274086
H  H35  1  0.83473000  0.19833000  0.34190000  1.0 0.1406274086
H  H36  1  0.63640000  0.83473000  0.34190000  1.0 0.1406274086
H  H37  1  0.83473000  0.63640000  0.84190000  1.0 0.1406274086
H  H38  1  0.36360000  0.19833000  0.84190000  1.0 0.1406274086
H  H39  1  0.80167000  0.16527000  0.84190000  1.0 0.1406274086
H  H40  1  0.63640000  0.80167000  0.84190000  1.0 0.1406274086
H  H41  1  0.19833000  0.83473000  0.84190000  1.0 0.1406274086
H  H42  1  0.63640000  0.83473000  0.65810000  1.0 0.1406274086
H  H43  1  0.80167000  0.63640000  0.65810000  1.0 0.1406274086
H  H44  1  0.83473000  0.19833000  0.65810000  1.0 0.1406274086
H  H45  1  0.16527000  0.36360000  0.84190000  1.0 0.1406274086
H  H46  1  0.19833000  0.36360000  0.65810000  1.0 0.1406274086
H  H47  1  0.16527000  0.80167000  0.65810000  1.0 0.1406274086
H  H48  1  0.36360000  0.16527000  0.65810000  1.0 0.1406274086
C  C1  1  0.13077000  0.48400000  0.13860000  1.0 0.6300053618
C  C2  1  0.51600000  0.64677000  0.13860000  1.0 0.6300053618
C  C3  1  0.35323000  0.86923000  0.13860000  1.0 0.6300053618
C  C4  1  0.48400000  0.35323000  0.13860000  1.0 0.6300053618
C  C5  1  0.64677000  0.13077000  0.13860000  1.0 0.6300053618
C  C6  1  0.48400000  0.13077000  0.36140000  1.0 0.6300053618
C  C7  1  0.35323000  0.48400000  0.36140000  1.0 0.6300053618
C  C8  1  0.13077000  0.64677000  0.36140000  1.0 0.6300053618
C  C9  1  0.86923000  0.51600000  0.13860000  1.0 0.6300053618
C  C10  1  0.64677000  0.51600000  0.36140000  1.0 0.6300053618
C  C11  1  0.86923000  0.35323000  0.36140000  1.0 0.6300053618
C  C12  1  0.51600000  0.86923000  0.36140000  1.0 0.6300053618
C  C13  1  0.86923000  0.51600000  0.86140000  1.0 0.6300053618
C  C14  1  0.48400000  0.35323000  0.86140000  1.0 0.6300053618
C  C15  1  0.64677000  0.13077000  0.86140000  1.0 0.6300053618
C  C16  1  0.51600000  0.64677000  0.86140000  1.0 0.6300053618
C  C17  1  0.35323000  0.86923000  0.86140000  1.0 0.6300053618
C  C18  1  0.51600000  0.86923000  0.63860000  1.0 0.6300053618
C  C19  1  0.64677000  0.51600000  0.63860000  1.0 0.6300053618
C  C20  1  0.86923000  0.35323000  0.63860000  1.0 0.6300053618
C  C21  1  0.13077000  0.48400000  0.86140000  1.0 0.6300053618
C  C22  1  0.35323000  0.48400000  0.63860000  1.0 0.6300053618
C  C23  1  0.13077000  0.64677000  0.63860000  1.0 0.6300053618
C  C24  1  0.48400000  0.13077000  0.63860000  1.0 0.6300053618
C  C25  1  0.14917000  0.40900000  0.19430000  1.0 -0.1652700209
C  C26  1  0.59100000  0.74017000  0.19430000  1.0 -0.1647056991
C  C27  1  0.25983000  0.85083000  0.19430000  1.0 -0.1652700209
C  C28  1  0.40900000  0.25983000  0.19430000  1.0 -0.1647056991
C  C29  1  0.74017000  0.14917000  0.19430000  1.0 -0.1647056991
C  C30  1  0.40900000  0.14917000  0.30570000  1.0 -0.1647056991
C  C31  1  0.25983000  0.40900000  0.30570000  1.0 -0.1652700209
C  C32  1  0.14917000  0.74017000  0.30570000  1.0 -0.1652700209
C  C33  1  0.85083000  0.59100000  0.19430000  1.0 -0.1647056991
C  C34  1  0.74017000  0.59100000  0.30570000  1.0 -0.1647056991
C  C35  1  0.85083000  0.25983000  0.30570000  1.0 -0.1647056991
C  C36  1  0.59100000  0.85083000  0.30570000  1.0 -0.1647056991
C  C37  1  0.85083000  0.59100000  0.80570000  1.0 -0.1647056991
C  C38  1  0.40900000  0.25983000  0.80570000  1.0 -0.1647056991
C  C39  1  0.74017000  0.14917000  0.80570000  1.0 -0.1647056991
C  C40  1  0.59100000  0.74017000  0.80570000  1.0 -0.1647056991
C  C41  1  0.25983000  0.85083000  0.80570000  1.0 -0.1647056991
C  C42  1  0.59100000  0.85083000  0.69430000  1.0 -0.1647056991
C  C43  1  0.74017000  0.59100000  0.69430000  1.0 -0.1647056991
C  C44  1  0.85083000  0.25983000  0.69430000  1.0 -0.1647056991
C  C45  1  0.14917000  0.40900000  0.80570000  1.0 -0.1647056991
C  C46  1  0.25983000  0.40900000  0.69430000  1.0 -0.1647056991
C  C47  1  0.14917000  0.74017000  0.69430000  1.0 -0.1652700209
C  C48  1  0.40900000  0.14917000  0.69430000  1.0 -0.1647056991
O  O1  1  0.19487000  0.58230000  0.14510000  1.0 -0.6104334124
O  O2  1  0.41770000  0.61257000  0.14510000  1.0 -0.6104334124
O  O3  1  0.38743000  0.80513000  0.14510000  1.0 -0.6104334124
O  O4  1  0.58230000  0.38743000  0.14510000  1.0 -0.6104334124
O  O5  1  0.61257000  0.19487000  0.14510000  1.0 -0.6104334124
O  O6  1  0.58230000  0.19487000  0.35490000  1.0 -0.6104334124
O  O7  1  0.38743000  0.58230000  0.35490000  1.0 -0.6104334124
O  O8  1  0.19487000  0.61257000  0.35490000  1.0 -0.6104334124
O  O9  1  0.80513000  0.41770000  0.14510000  1.0 -0.6104334124
O  O10  1  0.61257000  0.41770000  0.35490000  1.0 -0.6104334124
O  O11  1  0.80513000  0.38743000  0.35490000  1.0 -0.6104334124
O  O12  1  0.41770000  0.80513000  0.35490000  1.0 -0.6104334124
O  O13  1  0.80513000  0.41770000  0.85490000  1.0 -0.6104334124
O  O14  1  0.58230000  0.38743000  0.85490000  1.0 -0.6104334124
O  O15  1  0.61257000  0.19487000  0.85490000  1.0 -0.6104334124
O  O16  1  0.41770000  0.61257000  0.85490000  1.0 -0.6104334124
O  O17  1  0.38743000  0.80513000  0.85490000  1.0 -0.6104334124
O  O18  1  0.41770000  0.80513000  0.64510000  1.0 -0.6104334124
O  O19  1  0.61257000  0.41770000  0.64510000  1.0 -0.6104334124
O  O20  1  0.80513000  0.38743000  0.64510000  1.0 -0.6104334124
O  O21  1  0.19487000  0.58230000  0.85490000  1.0 -0.6104334124
O  O22  1  0.38743000  0.58230000  0.64510000  1.0 -0.6104334124
O  O23  1  0.19487000  0.61257000  0.64510000  1.0 -0.6104334124
O  O24  1  0.58230000  0.19487000  0.64510000  1.0 -0.6104334124
O  O25  1  0.05217000  0.44010000  0.08800000  1.0 -0.5515148346
O  O26  1  0.55990000  0.61207000  0.08800000  1.0 -0.5515148346
O  O27  1  0.38793000  0.94783000  0.08800000  1.0 -0.5515148346
O  O28  1  0.44010000  0.38793000  0.08800000  1.0 -0.5515148346
O  O29  1  0.61207000  0.05217000  0.08800000  1.0 -0.5515148346
O  O30  1  0.44010000  0.05217000  0.41200000  1.0 -0.5515148346
O  O31  1  0.38793000  0.44010000  0.41200000  1.0 -0.5515148346
O  O32  1  0.05217000  0.61207000  0.41200000  1.0 -0.5515148346
O  O33  1  0.94783000  0.55990000  0.08800000  1.0 -0.5515148346
O  O34  1  0.61207000  0.55990000  0.41200000  1.0 -0.5515148346
O  O35  1  0.94783000  0.38793000  0.41200000  1.0 -0.5515148346
O  O36  1  0.55990000  0.94783000  0.41200000  1.0 -0.5515148346
O  O37  1  0.94783000  0.55990000  0.91200000  1.0 -0.5515148346
O  O38  1  0.44010000  0.38793000  0.91200000  1.0 -0.5515148346
O  O39  1  0.61207000  0.05217000  0.91200000  1.0 -0.5515148346
O  O40  1  0.55990000  0.61207000  0.91200000  1.0 -0.5515148346
O  O41  1  0.38793000  0.94783000  0.91200000  1.0 -0.5515148346
O  O42  1  0.55990000  0.94783000  0.58800000  1.0 -0.5515148346
O  O43  1  0.61207000  0.55990000  0.58800000  1.0 -0.5515148346
O  O44  1  0.94783000  0.38793000  0.58800000  1.0 -0.5515148346
O  O45  1  0.05217000  0.44010000  0.91200000  1.0 -0.5515148346
O  O46  1  0.38793000  0.44010000  0.58800000  1.0 -0.5515148346
O  O47  1  0.05217000  0.61207000  0.58800000  1.0 -0.5515148346
O  O48  1  0.44010000  0.05217000  0.58800000  1.0 -0.5515148346
O  O49  1  0.23485000  0.46970000  0.25000000  1.0 -0.2189464374
O  O50  1  0.53030000  0.76515000  0.25000000  1.0 -0.2189464374
O  O51  1  0.23485000  0.76515000  0.25000000  1.0 -0.2189464374
O  O52  1  0.46970000  0.23485000  0.25000000  1.0 -0.2189464374
O  O53  1  0.76515000  0.23485000  0.25000000  1.0 -0.2189464374
O  O54  1  0.76515000  0.53030000  0.25000000  1.0 -0.2189464374
O  O55  1  0.76515000  0.53030000  0.75000000  1.0 -0.2189464374
O  O56  1  0.46970000  0.23485000  0.75000000  1.0 -0.2189464374
O  O57  1  0.76515000  0.23485000  0.75000000  1.0 -0.2189464374
O  O58  1  0.53030000  0.76515000  0.75000000  1.0 -0.2189464374
O  O59  1  0.23485000  0.76515000  0.75000000  1.0 -0.2189464374
O  O60  1  0.23485000  0.46970000  0.75000000  1.0 -0.2189464374
