# DDEC6 charges by PACMAN v1.1 (https://github.com/mtap-research/PACMAN-charge/)
data_2006[Er][nan]3[ASR]1
_chemical_formula_sum              "Er4 H24 C48 O24"
_cell_length_a       20.0433
_cell_length_b       20.0433
_cell_length_c       7.0122
_cell_angle_alpha    81.7075
_cell_angle_beta     98.2925
_cell_angle_gamma    147.778

_symmetry_space_group_name_H-M    "P 1"
_symmetry_Int_Tables_number       1

loop_
  _symmetry_equiv_pos_as_xyz
  'x, y, z'

loop_
  _atom_site_type_symbol
  _atom_site_label
  _atom_site_symmetry_multiplicity
  _atom_site_fract_x
  _atom_site_fract_y
  _atom_site_fract_z
  _atom_site_occupancy
  _atom_site_charge
Er  Er1       1.0  0.67017  0.92955  0.14666  1.0000 2.0508374834
Er  Er2       1.0  0.92955  0.67017  0.35334  1.0000 2.0508374834
Er  Er3       1.0  0.32983  0.07045  0.85334  1.0000 2.0508374834
Er  Er4       1.0  0.07045  0.32983  0.64666  1.0000 2.0508374834
H   H1        1.0  0.78690  0.79670  0.49760  1.0000 0.1191827022
H   H2        1.0  0.79670  0.78690  0.00240  1.0000 0.1191827022
H   H3        1.0  0.21310  0.20330  0.50240  1.0000 0.1191827022
H   H4        1.0  0.20330  0.21310  0.99760  1.0000 0.1191827022
H   H5        1.0  0.07550  0.16690  0.36340  1.0000 0.1270526761
H   H6        1.0  0.16690  0.07550  0.13660  1.0000 0.1270526761
H   H7        1.0  0.92450  0.83310  0.63660  1.0000 0.1270526761
H   H8        1.0  0.83310  0.92450  0.86340  1.0000 0.1270526761
H   H9        1.0  0.82670  0.28190  0.52760  1.0000 0.1010326856
H   H10       1.0  0.28190  0.82670  0.97240  1.0000 0.1010326856
H   H11       1.0  0.17330  0.71810  0.47240  1.0000 0.1010326856
H   H12       1.0  0.71810  0.17330  0.02760  1.0000 0.1010326856
H   H13       1.0  0.73200  0.30660  0.42370  1.0000 0.1191827022
H   H14       1.0  0.30660  0.73200  0.07630  1.0000 0.1191827022
H   H15       1.0  0.26800  0.69340  0.57630  1.0000 0.1191827022
H   H16       1.0  0.69340  0.26800  0.92370  1.0000 0.1191827022
H   H17       1.0  0.44820  0.97280  0.18630  1.0000 0.1126839557
H   H18       1.0  0.97280  0.44820  0.31370  1.0000 0.1126839557
H   H19       1.0  0.55180  0.02720  0.81370  1.0000 0.1126839557
H   H20       1.0  0.02720  0.55180  0.68630  1.0000 0.1126839557
H   H21       1.0  0.53690  0.94370  0.29710  1.0000 0.1126839557
H   H22       1.0  0.94370  0.53690  0.20290  1.0000 0.1126839557
H   H23       1.0  0.46310  0.05630  0.70290  1.0000 0.1126839557
H   H24       1.0  0.05630  0.46310  0.79710  1.0000 0.1126839557
C   C1        1.0  0.82660  0.95760  0.32750  1.0000 0.5705527925
C   C2        1.0  0.95760  0.82660  0.17250  1.0000 0.5705527925
C   C3        1.0  0.17340  0.04240  0.67250  1.0000 0.5705527925
C   C4        1.0  0.04240  0.17340  0.82750  1.0000 0.5705527925
C   C5        1.0  0.91610  0.97930  0.41640  1.0000 0.0024926531
C   C6        1.0  0.97930  0.91610  0.08360  1.0000 0.0024926531
C   C7        1.0  0.08390  0.02070  0.58360  1.0000 0.0024926531
C   C8        1.0  0.02070  0.08390  0.91640  1.0000 0.0024926531
C   C9        1.0  0.87220  0.87800  0.49950  1.0000 -0.1172992195
C   C10       1.0  0.87800  0.87220  0.00050  1.0000 -0.1172992195
C   C11       1.0  0.12780  0.12200  0.50050  1.0000 -0.1172992195
C   C12       1.0  0.12200  0.12780  0.99950  1.0000 -0.1172992195
C   C13       1.0  0.04550  0.10010  0.41920  1.0000 -0.1110839217
C   C14       1.0  0.10010  0.04550  0.08080  1.0000 -0.1110839217
C   C15       1.0  0.95450  0.89990  0.58080  1.0000 -0.101007644
C   C16       1.0  0.89990  0.95450  0.91920  1.0000 -0.101007644
C   C17       1.0  0.76530  0.10790  0.46700  1.0000 0.672303375
C   C18       1.0  0.10790  0.76530  0.03300  1.0000 0.672303375
C   C19       1.0  0.23470  0.89210  0.53300  1.0000 0.672303375
C   C20       1.0  0.89210  0.23470  0.96700  1.0000 0.672303375
C   C21       1.0  0.69740  0.11540  0.41470  1.0000 -0.0573393366
C   C22       1.0  0.11540  0.69740  0.08530  1.0000 -0.0573393366
C   C23       1.0  0.30260  0.88460  0.58530  1.0000 -0.0573393366
C   C24       1.0  0.88460  0.30260  0.91470  1.0000 -0.0573393366
C   C25       1.0  0.75100  0.22000  0.45650  1.0000 -0.101007644
C   C26       1.0  0.22000  0.75100  0.04350  1.0000 -0.101007644
C   C27       1.0  0.24900  0.78000  0.54350  1.0000 -0.101007644
C   C28       1.0  0.78000  0.24900  0.95650  1.0000 -0.101007644
C   C29       1.0  0.69420  0.23540  0.39420  1.0000 -0.1110839217
C   C30       1.0  0.23540  0.69420  0.10580  1.0000 -0.1110839217
C   C31       1.0  0.30580  0.76460  0.60580  1.0000 -0.1110839217
C   C32       1.0  0.76460  0.30580  0.89420  1.0000 -0.1110839217
C   C33       1.0  0.58190  0.14330  0.28910  1.0000 -0.0303281703
C   C34       1.0  0.14330  0.58190  0.21090  1.0000 -0.0303281703
C   C35       1.0  0.41810  0.85670  0.71090  1.0000 -0.0303281703
C   C36       1.0  0.85670  0.41810  0.78910  1.0000 -0.0303281703
C   C37       1.0  0.52500  0.03560  0.25450  1.0000 -0.101007644
C   C38       1.0  0.03560  0.52500  0.24550  1.0000 -0.101007644
C   C39       1.0  0.47500  0.96440  0.74550  1.0000 -0.101007644
C   C40       1.0  0.96440  0.47500  0.75450  1.0000 -0.101007644
C   C41       1.0  0.57850  0.01810  0.31790  1.0000 -0.1110839217
C   C42       1.0  0.01810  0.57850  0.18210  1.0000 -0.1110839217
C   C43       1.0  0.42150  0.98190  0.68210  1.0000 -0.1110839217
C   C44       1.0  0.98190  0.42150  0.81790  1.0000 -0.1110839217
C   C45       1.0  0.52360  0.16100  0.21180  1.0000 0.6004123056
C   C46       1.0  0.16100  0.52360  0.28820  1.0000 0.6004123056
C   C47       1.0  0.47640  0.83900  0.78820  1.0000 0.6004123056
C   C48       1.0  0.83900  0.47640  0.71180  1.0000 0.6004123056
O   O1        1.0  0.86630  0.04110  0.21400  1.0000 -0.6434308923
O   O2        1.0  0.04110  0.86630  0.28600  1.0000 -0.6434308923
O   O3        1.0  0.13370  0.95890  0.78600  1.0000 -0.6434308923
O   O4        1.0  0.95890  0.13370  0.71400  1.0000 -0.6434308923
O   O5        1.0  0.71180  0.85640  0.35460  1.0000 -0.6194014883
O   O6        1.0  0.85640  0.71180  0.14540  1.0000 -0.6194014883
O   O7        1.0  0.28820  0.14360  0.64540  1.0000 -0.6194014883
O   O8        1.0  0.14360  0.28820  0.85460  1.0000 -0.6194014883
O   O9        1.0  0.71530  0.01130  0.42220  1.0000 -0.6879954524
O   O10       1.0  0.01130  0.71530  0.07780  1.0000 -0.6879954524
O   O11       1.0  0.28470  0.98870  0.57780  1.0000 -0.6879954524
O   O12       1.0  0.98870  0.28470  0.92220  1.0000 -0.6879954524
O   O13       1.0  0.86910  0.19670  0.55720  1.0000 -0.6513529456
O   O14       1.0  0.19670  0.86910  0.94280  1.0000 -0.6513529456
O   O15       1.0  0.13090  0.80330  0.44280  1.0000 -0.6513529456
O   O16       1.0  0.80330  0.13090  0.05720  1.0000 -0.6513529456
O   O17       1.0  0.45660  0.10700  0.05610  1.0000 -0.7386459297
O   O18       1.0  0.10700  0.45660  0.44390  1.0000 -0.7386459297
O   O19       1.0  0.54340  0.89300  0.94390  1.0000 -0.7386459297
O   O20       1.0  0.89300  0.54340  0.55610  1.0000 -0.7386459297
O   O21       1.0  0.54460  0.22860  0.29810  1.0000 -0.5123949385
O   O22       1.0  0.22860  0.54460  0.20190  1.0000 -0.5123949385
O   O23       1.0  0.45540  0.77140  0.70190  1.0000 -0.5123949385
O   O24       1.0  0.77140  0.45540  0.79810  1.0000 -0.5123949385
