# DDEC6 charges by PACMAN v1.1 (https://github.com/mtap-research/PACMAN-charge/)
data_2007[Fe][dia]3[ASR]4
_chemical_formula_sum              "Fe12 H24 C24 O48"
_cell_length_a       11.2911
_cell_length_b       9.8459
_cell_length_c       18.5051
_cell_angle_alpha    90
_cell_angle_beta     126.77
_cell_angle_gamma    90

_symmetry_space_group_name_H-M    "P 1"
_symmetry_Int_Tables_number       1

loop_
  _symmetry_equiv_pos_as_xyz
  'x, y, z'

loop_
  _atom_site_type_symbol
  _atom_site_label
  _atom_site_symmetry_multiplicity
  _atom_site_fract_x
  _atom_site_fract_y
  _atom_site_fract_z
  _atom_site_occupancy
  _atom_site_charge
Fe  Fe1       1.0  0.62158  0.91876  0.86650  1.0000 0.9156914143
Fe  Fe2       1.0  0.37842  0.41876  0.63350  1.0000 0.9156914143
Fe  Fe3       1.0  0.37842  0.08124  0.13350  1.0000 0.9156914143
Fe  Fe4       1.0  0.62158  0.58124  0.36650  1.0000 0.9156914143
Fe  Fe5       1.0  0.57217  0.89216  0.30995  1.0000 0.9077466815
Fe  Fe6       1.0  0.42783  0.39216  0.19005  1.0000 0.9077466815
Fe  Fe7       1.0  0.42783  0.10784  0.69005  1.0000 0.9077466815
Fe  Fe8       1.0  0.57217  0.60784  0.80995  1.0000 0.9077466815
Fe  Fe9       1.0  0.50000  0.00000  0.00000  1.0000 0.946730548
Fe  Fe10      1.0  0.50000  0.50000  0.50000  1.0000 0.942970091
Fe  Fe11      1.0  0.00000  0.00000  0.00000  1.0000 0.9609342156
Fe  Fe12      1.0  0.00000  0.50000  0.50000  1.0000 0.9609342156
H   H1        1.0  0.50500  0.75400  0.63590  1.0000 0.1098599589
H   H2        1.0  0.49500  0.25400  0.86410  1.0000 0.1098599589
H   H3        1.0  0.49500  0.24600  0.36410  1.0000 0.1098599589
H   H4        1.0  0.50500  0.74600  0.13590  1.0000 0.1098599589
H   H5        1.0  0.20500  0.03000  0.73560  1.0000 0.1098599589
H   H6        1.0  0.79500  0.53000  0.76440  1.0000 0.1098599589
H   H7        1.0  0.79500  0.97000  0.26440  1.0000 0.1098599589
H   H8        1.0  0.20500  0.47000  0.23560  1.0000 0.1098599589
H   H9        1.0  0.50600  0.61300  0.95410  1.0000 0.1046468406
H   H10       1.0  0.49400  0.11300  0.54590  1.0000 0.1046468406
H   H11       1.0  0.49400  0.38700  0.04590  1.0000 0.1098599589
H   H12       1.0  0.50600  0.88700  0.45410  1.0000 0.1098599589
H   H13       1.0  0.75400  0.20700  0.77430  1.0000 0.090919103
H   H14       1.0  0.24600  0.70700  0.72570  1.0000 0.090919103
H   H15       1.0  0.24600  0.79300  0.22570  1.0000 0.090919103
H   H16       1.0  0.75400  0.29300  0.27430  1.0000 0.090919103
H   H17       1.0  0.75800  0.15400  0.06830  1.0000 0.1194780153
H   H18       1.0  0.24200  0.65400  0.43170  1.0000 0.1194780153
H   H19       1.0  0.24200  0.84600  0.93170  1.0000 0.1194780153
H   H20       1.0  0.75800  0.34600  0.56830  1.0000 0.1194780153
H   H21       1.0  0.98100  0.70300  0.99300  1.0000 0.1194780153
H   H22       1.0  0.01900  0.20300  0.50700  1.0000 0.1194780153
H   H23       1.0  0.01900  0.29700  0.00700  1.0000 0.125492075
H   H24       1.0  0.98100  0.79700  0.49300  1.0000 0.1194780153
C   C1        1.0  0.50320  0.82630  0.67013  1.0000 0.4493449717
C   C2        1.0  0.49680  0.32630  0.82987  1.0000 0.4493449717
C   C3        1.0  0.49680  0.17370  0.32987  1.0000 0.4493449717
C   C4        1.0  0.50320  0.67370  0.17013  1.0000 0.4493449717
C   C5        1.0  0.30300  0.01690  0.78985  1.0000 0.4329488067
C   C6        1.0  0.69700  0.51690  0.71015  1.0000 0.4329488067
C   C7        1.0  0.69700  0.98310  0.21015  1.0000 0.4329488067
C   C8        1.0  0.30300  0.48310  0.28985  1.0000 0.4329488067
C   C9        1.0  0.51830  0.70840  0.94679  1.0000 0.4409009716
C   C10       1.0  0.48170  0.20840  0.55321  1.0000 0.4409009716
C   C11       1.0  0.48170  0.29160  0.05321  1.0000 0.4409009716
C   C12       1.0  0.51830  0.79160  0.44679  1.0000 0.4409009716
C   C13       1.0  0.76880  0.13420  0.81613  1.0000 0.4409009716
C   C14       1.0  0.23120  0.63420  0.68387  1.0000 0.4409009716
C   C15       1.0  0.23120  0.86580  0.18387  1.0000 0.4409009716
C   C16       1.0  0.76880  0.36580  0.31613  1.0000 0.4409009716
C   C17       1.0  0.77410  0.10500  0.03105  1.0000 0.464286895
C   C18       1.0  0.22590  0.60500  0.46895  1.0000 0.4659499689
C   C19       1.0  0.22590  0.89500  0.96895  1.0000 0.4659499689
C   C20       1.0  0.77410  0.39500  0.53105  1.0000 0.4659499689
C   C21       1.0  0.87850  0.71740  0.94856  1.0000 0.464286895
C   C22       1.0  0.12150  0.21740  0.55144  1.0000 0.464286895
C   C23       1.0  0.12150  0.28260  0.05144  1.0000 0.4659499689
C   C24       1.0  0.87850  0.78260  0.44856  1.0000 0.464286895
O   O1        1.0  0.56458  0.79913  0.75315  1.0000 -0.5390365529
O   O2        1.0  0.43542  0.29913  0.74685  1.0000 -0.5390365529
O   O3        1.0  0.43542  0.20087  0.24685  1.0000 -0.5390365529
O   O4        1.0  0.56458  0.70087  0.25315  1.0000 -0.5390365529
O   O5        1.0  0.44580  0.93677  0.63209  1.0000 -0.479975385
O   O6        1.0  0.55420  0.43677  0.86791  1.0000 -0.479975385
O   O7        1.0  0.55420  0.06323  0.36791  1.0000 -0.4730216127
O   O8        1.0  0.44580  0.56323  0.13209  1.0000 -0.4730216127
O   O9        1.0  0.40633  0.00235  0.78197  1.0000 -0.5348001779
O   O10       1.0  0.59367  0.50235  0.71803  1.0000 -0.5390365529
O   O11       1.0  0.59367  0.99765  0.21803  1.0000 -0.5390365529
O   O12       1.0  0.40633  0.49765  0.28197  1.0000 -0.5390365529
O   O13       1.0  0.31600  0.00693  0.86114  1.0000 -0.479975385
O   O14       1.0  0.68400  0.50693  0.63886  1.0000 -0.479975385
O   O15       1.0  0.68400  0.99307  0.13886  1.0000 -0.479975385
O   O16       1.0  0.31600  0.49307  0.36114  1.0000 -0.479975385
O   O17       1.0  0.53854  0.74017  0.88825  1.0000 -0.5390365529
O   O18       1.0  0.46146  0.24017  0.61175  1.0000 -0.5390365529
O   O19       1.0  0.46146  0.25983  0.11175  1.0000 -0.5390365529
O   O20       1.0  0.53854  0.75983  0.38825  1.0000 -0.5390365529
O   O21       1.0  0.51140  0.78894  0.99573  1.0000 -0.4905825318
O   O22       1.0  0.48860  0.28894  0.50427  1.0000 -0.4905825318
O   O23       1.0  0.48860  0.21106  0.00427  1.0000 -0.4905825318
O   O24       1.0  0.51140  0.71106  0.49573  1.0000 -0.4905825318
O   O25       1.0  0.65524  0.08484  0.80561  1.0000 -0.5390365529
O   O26       1.0  0.34476  0.58484  0.69439  1.0000 -0.5390365529
O   O27       1.0  0.34476  0.91516  0.19439  1.0000 -0.5390365529
O   O28       1.0  0.65524  0.41516  0.30561  1.0000 -0.5390365529
O   O29       1.0  0.89910  0.10744  0.87809  1.0000 -0.4730216127
O   O30       1.0  0.10090  0.60744  0.62191  1.0000 -0.4730216127
O   O31       1.0  0.10090  0.89256  0.12191  1.0000 -0.4730216127
O   O32       1.0  0.89910  0.39256  0.37809  1.0000 -0.4730216127
O   O33       1.0  0.66366  0.02643  0.97683  1.0000 -0.5541348518
O   O34       1.0  0.33634  0.52643  0.52317  1.0000 -0.5541348518
O   O35       1.0  0.33634  0.97357  0.02317  1.0000 -0.5555900396
O   O36       1.0  0.66366  0.47357  0.47683  1.0000 -0.5555900396
O   O37       1.0  0.88810  0.11499  0.03715  1.0000 -0.479975385
O   O38       1.0  0.11190  0.61499  0.46285  1.0000 -0.479975385
O   O39       1.0  0.11190  0.88501  0.96285  1.0000 -0.479975385
O   O40       1.0  0.88810  0.38501  0.53715  1.0000 -0.479975385
O   O41       1.0  0.83570  0.84097  0.93885  1.0000 -0.5390365529
O   O42       1.0  0.16430  0.34097  0.56115  1.0000 -0.5390365529
O   O43       1.0  0.16430  0.15903  0.06115  1.0000 -0.5390365529
O   O44       1.0  0.83570  0.65903  0.43885  1.0000 -0.5390365529
O   O45       1.0  0.79970  0.61818  0.90508  1.0000 -0.479975385
O   O46       1.0  0.20030  0.11818  0.59492  1.0000 -0.479975385
O   O47       1.0  0.20030  0.38182  0.09492  1.0000 -0.479975385
O   O48       1.0  0.79970  0.88182  0.40508  1.0000 -0.479975385
