# DDEC6 charges by PACMAN v1.1 (https://github.com/mtap-research/PACMAN-charge/)
data_2007[Fe][dia]3[ASR]5
_chemical_formula_sum              "Fe12 H24 C24 O48"
_cell_length_a       11.339
_cell_length_b       9.9023
_cell_length_c       18.5536
_cell_angle_alpha    90
_cell_angle_beta     126.707
_cell_angle_gamma    90

_symmetry_space_group_name_H-M    "P 1"
_symmetry_Int_Tables_number       1

loop_
  _symmetry_equiv_pos_as_xyz
  'x, y, z'

loop_
  _atom_site_type_symbol
  _atom_site_label
  _atom_site_symmetry_multiplicity
  _atom_site_fract_x
  _atom_site_fract_y
  _atom_site_fract_z
  _atom_site_occupancy
  _atom_site_charge
Fe  Fe1       1.0  0.62121  0.92069  0.86637  1.0000 0.9135935703
Fe  Fe2       1.0  0.37879  0.42069  0.63363  1.0000 0.9135935703
Fe  Fe3       1.0  0.37879  0.07931  0.13363  1.0000 0.9135935703
Fe  Fe4       1.0  0.62121  0.57931  0.36637  1.0000 0.9135935703
Fe  Fe5       1.0  0.57103  0.88923  0.30903  1.0000 0.916176478
Fe  Fe6       1.0  0.42897  0.38923  0.19097  1.0000 0.916176478
Fe  Fe7       1.0  0.42897  0.11077  0.69097  1.0000 0.9135935703
Fe  Fe8       1.0  0.57103  0.61077  0.80903  1.0000 0.9135935703
Fe  Fe9       1.0  0.50000  0.00000  0.00000  1.0000 0.9436428645
Fe  Fe10      1.0  0.50000  0.50000  0.50000  1.0000 0.9436428645
Fe  Fe11      1.0  0.00000  0.00000  0.00000  1.0000 0.9536811212
Fe  Fe12      1.0  0.00000  0.50000  0.50000  1.0000 0.9536811212
H   H1        1.0  0.49600  0.75700  0.63090  1.0000 0.0885413993
H   H2        1.0  0.50400  0.25700  0.86910  1.0000 0.0885413993
H   H3        1.0  0.50400  0.24300  0.36910  1.0000 0.0885413993
H   H4        1.0  0.49600  0.74300  0.13090  1.0000 0.0885413993
H   H5        1.0  0.20200  0.03600  0.73300  1.0000 0.0885413993
H   H6        1.0  0.79800  0.53600  0.76700  1.0000 0.0885413993
H   H7        1.0  0.79800  0.96400  0.26700  1.0000 0.0885413993
H   H8        1.0  0.20200  0.46400  0.23300  1.0000 0.0885413993
H   H9        1.0  0.50100  0.61300  0.94900  1.0000 0.0982783684
H   H10       1.0  0.49900  0.11300  0.55100  1.0000 0.0982783684
H   H11       1.0  0.49900  0.38700  0.05100  1.0000 0.0982783684
H   H12       1.0  0.50100  0.88700  0.44900  1.0000 0.0982783684
H   H13       1.0  0.75800  0.21400  0.78300  1.0000 0.1128796959
H   H14       1.0  0.24200  0.71400  0.71700  1.0000 0.1128796959
H   H15       1.0  0.24200  0.78600  0.21700  1.0000 0.1128796959
H   H16       1.0  0.75800  0.28600  0.28300  1.0000 0.1128796959
H   H17       1.0  0.76500  0.15200  0.06930  1.0000 0.1296361337
H   H18       1.0  0.23500  0.65200  0.43070  1.0000 0.1296361337
H   H19       1.0  0.23500  0.84800  0.93070  1.0000 0.1296361337
H   H20       1.0  0.76500  0.34800  0.56930  1.0000 0.1296361337
H   H21       1.0  0.98000  0.70900  0.98900  1.0000 0.1212167392
H   H22       1.0  0.02000  0.20900  0.51100  1.0000 0.1212167392
H   H23       1.0  0.02000  0.29100  0.01100  1.0000 0.1212167392
H   H24       1.0  0.98000  0.79100  0.48900  1.0000 0.1212167392
C   C1        1.0  0.50130  0.82950  0.67024  1.0000 0.4498109916
C   C2        1.0  0.49870  0.32950  0.82976  1.0000 0.4498109916
C   C3        1.0  0.49870  0.17050  0.32976  1.0000 0.4587833384
C   C4        1.0  0.50130  0.67050  0.17024  1.0000 0.4587833384
C   C5        1.0  0.30550  0.02100  0.79090  1.0000 0.4410194942
C   C6        1.0  0.69450  0.52100  0.70910  1.0000 0.4410194942
C   C7        1.0  0.69450  0.97900  0.20910  1.0000 0.4410194942
C   C8        1.0  0.30550  0.47900  0.29090  1.0000 0.4410194942
C   C9        1.0  0.51630  0.71060  0.94510  1.0000 0.4410194942
C   C10       1.0  0.48370  0.21060  0.55490  1.0000 0.4410194942
C   C11       1.0  0.48370  0.28940  0.05490  1.0000 0.4498109916
C   C12       1.0  0.51630  0.78940  0.44510  1.0000 0.4498109916
C   C13       1.0  0.76860  0.13700  0.81830  1.0000 0.4410194942
C   C14       1.0  0.23140  0.63700  0.68170  1.0000 0.4410194942
C   C15       1.0  0.23140  0.86300  0.18170  1.0000 0.4410194942
C   C16       1.0  0.76860  0.36300  0.31830  1.0000 0.4410194942
C   C17       1.0  0.77560  0.10080  0.03260  1.0000 0.468001946
C   C18       1.0  0.22440  0.60080  0.46740  1.0000 0.468001946
C   C19       1.0  0.22440  0.89920  0.96740  1.0000 0.468001946
C   C20       1.0  0.77560  0.39920  0.53260  1.0000 0.468001946
C   C21       1.0  0.87650  0.72060  0.94558  1.0000 0.468001946
C   C22       1.0  0.12350  0.22060  0.55442  1.0000 0.4587833384
C   C23       1.0  0.12350  0.27940  0.05442  1.0000 0.468001946
C   C24       1.0  0.87650  0.77940  0.44558  1.0000 0.468001946
O   O1        1.0  0.56260  0.80166  0.75259  1.0000 -0.5388542052
O   O2        1.0  0.43740  0.30166  0.74741  1.0000 -0.5388542052
O   O3        1.0  0.43740  0.19834  0.24741  1.0000 -0.5388542052
O   O4        1.0  0.56260  0.69834  0.25259  1.0000 -0.5388542052
O   O5        1.0  0.44590  0.94005  0.63307  1.0000 -0.4816633225
O   O6        1.0  0.55410  0.44005  0.86693  1.0000 -0.4816633225
O   O7        1.0  0.55410  0.05995  0.36693  1.0000 -0.4816633225
O   O8        1.0  0.44590  0.55995  0.13307  1.0000 -0.4816633225
O   O9        1.0  0.40780  0.00565  0.78286  1.0000 -0.5342678428
O   O10       1.0  0.59220  0.50565  0.71714  1.0000 -0.5342678428
O   O11       1.0  0.59220  0.99435  0.21714  1.0000 -0.5388542052
O   O12       1.0  0.40780  0.49435  0.28286  1.0000 -0.5342678428
O   O13       1.0  0.31840  0.01030  0.86202  1.0000 -0.4816633225
O   O14       1.0  0.68160  0.51030  0.63798  1.0000 -0.4816633225
O   O15       1.0  0.68160  0.98970  0.13798  1.0000 -0.4816633225
O   O16       1.0  0.31840  0.48970  0.36202  1.0000 -0.4816633225
O   O17       1.0  0.53950  0.74227  0.88808  1.0000 -0.5388542052
O   O18       1.0  0.46050  0.24227  0.61192  1.0000 -0.5388542052
O   O19       1.0  0.46050  0.25773  0.11192  1.0000 -0.5388542052
O   O20       1.0  0.53950  0.75773  0.38808  1.0000 -0.5388542052
O   O21       1.0  0.50830  0.78965  0.99370  1.0000 -0.487919881
O   O22       1.0  0.49170  0.28965  0.50630  1.0000 -0.487919881
O   O23       1.0  0.49170  0.21035  0.00630  1.0000 -0.487919881
O   O24       1.0  0.50830  0.71035  0.49370  1.0000 -0.487919881
O   O25       1.0  0.65520  0.08618  0.80592  1.0000 -0.5388542052
O   O26       1.0  0.34480  0.58618  0.69408  1.0000 -0.5388542052
O   O27       1.0  0.34480  0.91382  0.19408  1.0000 -0.5388542052
O   O28       1.0  0.65520  0.41382  0.30592  1.0000 -0.5388542052
O   O29       1.0  0.89750  0.11119  0.87997  1.0000 -0.4708024686
O   O30       1.0  0.10250  0.61119  0.62003  1.0000 -0.4708024686
O   O31       1.0  0.10250  0.88881  0.12003  1.0000 -0.4708024686
O   O32       1.0  0.89750  0.38881  0.37997  1.0000 -0.4708024686
O   O33       1.0  0.66380  0.02586  0.97739  1.0000 -0.5534881354
O   O34       1.0  0.33620  0.52586  0.52261  1.0000 -0.5534881354
O   O35       1.0  0.33620  0.97414  0.02261  1.0000 -0.5551912984
O   O36       1.0  0.66380  0.47414  0.47739  1.0000 -0.5534881354
O   O37       1.0  0.88860  0.11017  0.03857  1.0000 -0.4816633225
O   O38       1.0  0.11140  0.61017  0.46143  1.0000 -0.4816633225
O   O39       1.0  0.11140  0.88983  0.96143  1.0000 -0.4816633225
O   O40       1.0  0.88860  0.38983  0.53857  1.0000 -0.4816633225
O   O41       1.0  0.83492  0.84297  0.93744  1.0000 -0.5388542052
O   O42       1.0  0.16508  0.34297  0.56256  1.0000 -0.5388542052
O   O43       1.0  0.16508  0.15703  0.06256  1.0000 -0.5388542052
O   O44       1.0  0.83492  0.65703  0.43744  1.0000 -0.5388542052
O   O45       1.0  0.79720  0.62224  0.90293  1.0000 -0.4816633225
O   O46       1.0  0.20280  0.12224  0.59707  1.0000 -0.4816633225
O   O47       1.0  0.20280  0.37776  0.09707  1.0000 -0.4816633225
O   O48       1.0  0.79720  0.87776  0.40293  1.0000 -0.487919881
