# DDEC6 charges by PACMAN v1.1 (https://github.com/mtap-research/PACMAN-charge/)
data_2007[Fe][dia]3[ASR]12
_chemical_formula_sum              "Fe12 H24 C24 O48"
_cell_length_a       11.4207
_cell_length_b       9.9627
_cell_length_c       18.3039
_cell_angle_alpha    90
_cell_angle_beta     127.166
_cell_angle_gamma    90

_symmetry_space_group_name_H-M    "P 1"
_symmetry_Int_Tables_number       1

loop_
  _symmetry_equiv_pos_as_xyz
  'x, y, z'

loop_
  _atom_site_type_symbol
  _atom_site_label
  _atom_site_symmetry_multiplicity
  _atom_site_fract_x
  _atom_site_fract_y
  _atom_site_fract_z
  _atom_site_occupancy
  _atom_site_charge
Fe  Fe1       1.0  0.62273  0.92033  0.86727  1.0000 0.8804765161
Fe  Fe2       1.0  0.37727  0.42033  0.63273  1.0000 0.8804765161
Fe  Fe3       1.0  0.37727  0.07967  0.13273  1.0000 0.8804765161
Fe  Fe4       1.0  0.62273  0.57967  0.36727  1.0000 0.8804765161
Fe  Fe5       1.0  0.57224  0.89094  0.31225  1.0000 0.8935415263
Fe  Fe6       1.0  0.42776  0.39094  0.18775  1.0000 0.8935415263
Fe  Fe7       1.0  0.42776  0.10906  0.68775  1.0000 0.8935415263
Fe  Fe8       1.0  0.57224  0.60906  0.81225  1.0000 0.8935415263
Fe  Fe9       1.0  0.50000  0.00000  0.00000  1.0000 0.9391105439
Fe  Fe10      1.0  0.50000  0.50000  0.50000  1.0000 0.9391105439
Fe  Fe11      1.0  0.00000  0.00000  0.00000  1.0000 0.9577722515
Fe  Fe12      1.0  0.00000  0.50000  0.50000  1.0000 0.9577722515
H   H1        1.0  0.48800  0.75670  0.63180  1.0000 0.1220558419
H   H2        1.0  0.51200  0.25670  0.86820  1.0000 0.1220558419
H   H3        1.0  0.51200  0.24330  0.36820  1.0000 0.1220558419
H   H4        1.0  0.48800  0.74330  0.13180  1.0000 0.1220558419
H   H5        1.0  0.21290  0.03360  0.73490  1.0000 0.1297214052
H   H6        1.0  0.78710  0.53360  0.76510  1.0000 0.1297214052
H   H7        1.0  0.78710  0.96640  0.26510  1.0000 0.1297214052
H   H8        1.0  0.21290  0.46640  0.23490  1.0000 0.1297214052
H   H9        1.0  0.51310  0.62150  0.95760  1.0000 0.1220558419
H   H10       1.0  0.48690  0.12150  0.54240  1.0000 0.1220558419
H   H11       1.0  0.48690  0.37850  0.04240  1.0000 0.1220558419
H   H12       1.0  0.51310  0.87850  0.45760  1.0000 0.1220558419
H   H13       1.0  0.74880  0.18120  0.76540  1.0000 0.1220558419
H   H14       1.0  0.25120  0.68120  0.73460  1.0000 0.1220558419
H   H15       1.0  0.25120  0.81880  0.23460  1.0000 0.1220558419
H   H16       1.0  0.74880  0.31880  0.26540  1.0000 0.1220558419
H   H17       1.0  0.77100  0.15910  0.07130  1.0000 0.1220558419
H   H18       1.0  0.22900  0.65910  0.42870  1.0000 0.1220558419
H   H19       1.0  0.22900  0.84090  0.92870  1.0000 0.1220558419
H   H20       1.0  0.77100  0.34090  0.57130  1.0000 0.1220558419
H   H21       1.0  0.97850  0.70310  0.99380  1.0000 0.1297214052
H   H22       1.0  0.02150  0.20310  0.50620  1.0000 0.1297214052
H   H23       1.0  0.02150  0.29690  0.00620  1.0000 0.1297214052
H   H24       1.0  0.97850  0.79690  0.49380  1.0000 0.1297214052
C   C1        1.0  0.49530  0.82620  0.66827  1.0000 0.4464329
C   C2        1.0  0.50470  0.32620  0.83173  1.0000 0.4464329
C   C3        1.0  0.50470  0.17380  0.33173  1.0000 0.4464329
C   C4        1.0  0.49530  0.67380  0.16827  1.0000 0.4464329
C   C5        1.0  0.30590  0.01450  0.78829  1.0000 0.4219705242
C   C6        1.0  0.69410  0.51450  0.71171  1.0000 0.4219705242
C   C7        1.0  0.69410  0.98550  0.21171  1.0000 0.4219705242
C   C8        1.0  0.30590  0.48550  0.28829  1.0000 0.4219705242
C   C9        1.0  0.52470  0.71210  0.95120  1.0000 0.4256928752
C   C10       1.0  0.47530  0.21210  0.54880  1.0000 0.4256928752
C   C11       1.0  0.47530  0.28790  0.04880  1.0000 0.4256928752
C   C12       1.0  0.52470  0.78790  0.45120  1.0000 0.4256928752
C   C13       1.0  0.76620  0.12490  0.81157  1.0000 0.4219705242
C   C14       1.0  0.23380  0.62490  0.68843  1.0000 0.4219705242
C   C15       1.0  0.23380  0.87510  0.18843  1.0000 0.4219705242
C   C16       1.0  0.76620  0.37510  0.31157  1.0000 0.4219705242
C   C17       1.0  0.77550  0.10450  0.03183  1.0000 0.4623405228
C   C18       1.0  0.22450  0.60450  0.46817  1.0000 0.4623405228
C   C19       1.0  0.22450  0.89550  0.96817  1.0000 0.4623405228
C   C20       1.0  0.77550  0.39550  0.53183  1.0000 0.4623405228
C   C21       1.0  0.87850  0.71980  0.95085  1.0000 0.4623405228
C   C22       1.0  0.12150  0.21980  0.54915  1.0000 0.4623405228
C   C23       1.0  0.12150  0.28020  0.04915  1.0000 0.4623405228
C   C24       1.0  0.87850  0.78020  0.45085  1.0000 0.4623405228
O   O1        1.0  0.55960  0.79947  0.75245  1.0000 -0.5385408555
O   O2        1.0  0.44040  0.29947  0.74755  1.0000 -0.5385408555
O   O3        1.0  0.44040  0.20053  0.24755  1.0000 -0.5385408555
O   O4        1.0  0.55960  0.70053  0.25245  1.0000 -0.5385408555
O   O5        1.0  0.44150  0.93547  0.63013  1.0000 -0.4696264301
O   O6        1.0  0.55850  0.43547  0.86987  1.0000 -0.4696264301
O   O7        1.0  0.55850  0.06453  0.36987  1.0000 -0.4696264301
O   O8        1.0  0.44150  0.56453  0.13013  1.0000 -0.4696264301
O   O9        1.0  0.40900  0.00567  0.78141  1.0000 -0.5338069398
O   O10       1.0  0.59100  0.50567  0.71859  1.0000 -0.5338069398
O   O11       1.0  0.59100  0.99433  0.21859  1.0000 -0.5385408555
O   O12       1.0  0.40900  0.49433  0.28141  1.0000 -0.5338069398
O   O13       1.0  0.31650  0.00020  0.85866  1.0000 -0.4696264301
O   O14       1.0  0.68350  0.50020  0.64134  1.0000 -0.4696264301
O   O15       1.0  0.68350  0.99980  0.14134  1.0000 -0.4696264301
O   O16       1.0  0.31650  0.49980  0.35866  1.0000 -0.4696264301
O   O17       1.0  0.54450  0.74206  0.89269  1.0000 -0.5338069398
O   O18       1.0  0.45550  0.24206  0.60731  1.0000 -0.5338069398
O   O19       1.0  0.45550  0.25794  0.10731  1.0000 -0.5338069398
O   O20       1.0  0.54450  0.75794  0.39269  1.0000 -0.5338069398
O   O21       1.0  0.51920  0.79150  0.00131  1.0000 -0.4930372571
O   O22       1.0  0.48080  0.29150  0.49869  1.0000 -0.4930372571
O   O23       1.0  0.48080  0.20850  0.99869  1.0000 -0.4930372571
O   O24       1.0  0.51920  0.70850  0.50131  1.0000 -0.4930372571
O   O25       1.0  0.65500  0.08166  0.80281  1.0000 -0.5338069398
O   O26       1.0  0.34500  0.58166  0.69719  1.0000 -0.5338069398
O   O27       1.0  0.34500  0.91834  0.19719  1.0000 -0.5338069398
O   O28       1.0  0.65500  0.41834  0.30281  1.0000 -0.5338069398
O   O29       1.0  0.89520  0.10090  0.87438  1.0000 -0.4696264301
O   O30       1.0  0.10480  0.60090  0.62562  1.0000 -0.4696264301
O   O31       1.0  0.10480  0.89910  0.12562  1.0000 -0.4696264301
O   O32       1.0  0.89520  0.39910  0.37438  1.0000 -0.4696264301
O   O33       1.0  0.66520  0.02757  0.97822  1.0000 -0.5582061891
O   O34       1.0  0.33480  0.52757  0.52178  1.0000 -0.5582061891
O   O35       1.0  0.33480  0.97243  0.02178  1.0000 -0.5582061891
O   O36       1.0  0.66520  0.47243  0.47822  1.0000 -0.5582061891
O   O37       1.0  0.88580  0.11280  0.03589  1.0000 -0.4804349874
O   O38       1.0  0.11420  0.61280  0.46411  1.0000 -0.4804349874
O   O39       1.0  0.11420  0.88720  0.96411  1.0000 -0.4804349874
O   O40       1.0  0.88580  0.38720  0.53589  1.0000 -0.4804349874
O   O41       1.0  0.83703  0.84235  0.94030  1.0000 -0.548735622
O   O42       1.0  0.16297  0.34235  0.55970  1.0000 -0.548735622
O   O43       1.0  0.16297  0.15765  0.05970  1.0000 -0.548735622
O   O44       1.0  0.83703  0.65765  0.44030  1.0000 -0.548735622
O   O45       1.0  0.79860  0.62191  0.90956  1.0000 -0.4804349874
O   O46       1.0  0.20140  0.12191  0.59044  1.0000 -0.4804349874
O   O47       1.0  0.20140  0.37809  0.09044  1.0000 -0.4804349874
O   O48       1.0  0.79860  0.87809  0.40956  1.0000 -0.4804349874
