# DDEC6 charges by PACMAN v1.1 (https://github.com/mtap-research/PACMAN-charge/)
data_2007[Fe][dia]3[ASR]21
_chemical_formula_sum              "Fe12 H24 C24 O48"
_cell_length_a       11.4964
_cell_length_b       10.0205
_cell_length_c       18.5291
_cell_angle_alpha    90
_cell_angle_beta     126.785
_cell_angle_gamma    90

_symmetry_space_group_name_H-M    "P 1"
_symmetry_Int_Tables_number       1

loop_
  _symmetry_equiv_pos_as_xyz
  'x, y, z'

loop_
  _atom_site_type_symbol
  _atom_site_label
  _atom_site_symmetry_multiplicity
  _atom_site_fract_x
  _atom_site_fract_y
  _atom_site_fract_z
  _atom_site_occupancy
  _atom_site_charge
Fe  Fe1       1.0  0.62316  0.92595  0.86698  1.0000 0.8749065159
Fe  Fe2       1.0  0.37684  0.42595  0.63302  1.0000 0.8749065159
Fe  Fe3       1.0  0.37684  0.07405  0.13302  1.0000 0.8749065159
Fe  Fe4       1.0  0.62316  0.57405  0.36698  1.0000 0.8755585311
Fe  Fe5       1.0  0.56685  0.88181  0.30727  1.0000 0.8966906725
Fe  Fe6       1.0  0.43315  0.38181  0.19273  1.0000 0.8966906725
Fe  Fe7       1.0  0.43315  0.11819  0.69273  1.0000 0.8966906725
Fe  Fe8       1.0  0.56685  0.61819  0.80727  1.0000 0.8966906725
Fe  Fe9       1.0  0.50000  0.00000  0.00000  1.0000 0.9410590289
Fe  Fe10      1.0  0.50000  0.50000  0.50000  1.0000 0.9410590289
Fe  Fe11      1.0  0.00000  0.00000  0.00000  1.0000 0.953342384
Fe  Fe12      1.0  0.00000  0.50000  0.50000  1.0000 0.953342384
H   H1        1.0  0.48060  0.76870  0.63100  1.0000 0.1215748682
H   H2        1.0  0.51940  0.26870  0.86900  1.0000 0.1215748682
H   H3        1.0  0.51940  0.23130  0.36900  1.0000 0.1215748682
H   H4        1.0  0.48060  0.73130  0.13100  1.0000 0.1215748682
H   H5        1.0  0.22270  0.05340  0.74170  1.0000 0.1293939227
H   H6        1.0  0.77730  0.55340  0.75830  1.0000 0.1293939227
H   H7        1.0  0.77730  0.94660  0.25830  1.0000 0.1293939227
H   H8        1.0  0.22270  0.44660  0.24170  1.0000 0.1293939227
H   H9        1.0  0.50630  0.62610  0.95090  1.0000 0.1215748682
H   H10       1.0  0.49370  0.12610  0.54910  1.0000 0.1215748682
H   H11       1.0  0.49370  0.37390  0.04910  1.0000 0.1293939227
H   H12       1.0  0.50630  0.87390  0.45090  1.0000 0.1215748682
H   H13       1.0  0.75330  0.20080  0.77640  1.0000 0.1215748682
H   H14       1.0  0.24670  0.70080  0.72360  1.0000 0.1215748682
H   H15       1.0  0.24670  0.79920  0.22360  1.0000 0.1215748682
H   H16       1.0  0.75330  0.29920  0.27640  1.0000 0.1215748682
H   H17       1.0  0.77220  0.15000  0.07360  1.0000 0.1293939227
H   H18       1.0  0.22780  0.65000  0.42640  1.0000 0.1293939227
H   H19       1.0  0.22780  0.85000  0.92640  1.0000 0.1293939227
H   H20       1.0  0.77220  0.35000  0.57360  1.0000 0.1293939227
H   H21       1.0  0.97170  0.71030  0.97700  1.0000 0.1293939227
H   H22       1.0  0.02830  0.21030  0.52300  1.0000 0.1293939227
H   H23       1.0  0.02830  0.28970  0.02300  1.0000 0.1293939227
H   H24       1.0  0.97170  0.78970  0.47700  1.0000 0.1293939227
C   C1        1.0  0.49000  0.83690  0.66814  1.0000 0.4291097331
C   C2        1.0  0.51000  0.33690  0.83186  1.0000 0.4291097331
C   C3        1.0  0.51000  0.16310  0.33186  1.0000 0.4291097331
C   C4        1.0  0.49000  0.66310  0.16814  1.0000 0.4291097331
C   C5        1.0  0.31280  0.02790  0.79318  1.0000 0.4291097331
C   C6        1.0  0.68720  0.52790  0.70682  1.0000 0.4291097331
C   C7        1.0  0.68720  0.97210  0.20682  1.0000 0.4291097331
C   C8        1.0  0.31280  0.47210  0.29318  1.0000 0.4291097331
C   C9        1.0  0.51980  0.71630  0.94623  1.0000 0.4198734595
C   C10       1.0  0.48020  0.21630  0.55377  1.0000 0.4198734595
C   C11       1.0  0.48020  0.28370  0.05377  1.0000 0.4198734595
C   C12       1.0  0.51980  0.78370  0.44623  1.0000 0.4198734595
C   C13       1.0  0.76910  0.13900  0.81886  1.0000 0.4291097331
C   C14       1.0  0.23090  0.63900  0.68114  1.0000 0.4291097331
C   C15       1.0  0.23090  0.86100  0.18114  1.0000 0.4291097331
C   C16       1.0  0.76910  0.36100  0.31886  1.0000 0.4291097331
C   C17       1.0  0.77660  0.09740  0.03398  1.0000 0.4599390162
C   C18       1.0  0.22340  0.59740  0.46602  1.0000 0.4599390162
C   C19       1.0  0.22340  0.90260  0.96602  1.0000 0.4599390162
C   C20       1.0  0.77660  0.40260  0.53398  1.0000 0.4599390162
C   C21       1.0  0.87250  0.72780  0.93895  1.0000 0.4599390162
C   C22       1.0  0.12750  0.22780  0.56105  1.0000 0.4599390162
C   C23       1.0  0.12750  0.27220  0.06105  1.0000 0.4599390162
C   C24       1.0  0.87250  0.77220  0.43895  1.0000 0.4599390162
O   O1        1.0  0.55422  0.80855  0.75066  1.0000 -0.5377023401
O   O2        1.0  0.44578  0.30855  0.74934  1.0000 -0.5377023401
O   O3        1.0  0.44578  0.19145  0.24934  1.0000 -0.5377023401
O   O4        1.0  0.55422  0.69145  0.25066  1.0000 -0.5377023401
O   O5        1.0  0.43885  0.94673  0.63266  1.0000 -0.4704221673
O   O6        1.0  0.56115  0.44673  0.86734  1.0000 -0.4704221673
O   O7        1.0  0.56115  0.05327  0.36734  1.0000 -0.4704221673
O   O8        1.0  0.43885  0.55327  0.13266  1.0000 -0.4704221673
O   O9        1.0  0.41474  0.01609  0.78580  1.0000 -0.5377023401
O   O10       1.0  0.58526  0.51609  0.71420  1.0000 -0.5377023401
O   O11       1.0  0.58526  0.98391  0.21420  1.0000 -0.5377023401
O   O12       1.0  0.41474  0.48391  0.28580  1.0000 -0.5377023401
O   O13       1.0  0.32082  0.00907  0.86149  1.0000 -0.4704221673
O   O14       1.0  0.67918  0.50907  0.63851  1.0000 -0.4704221673
O   O15       1.0  0.67918  0.99093  0.13851  1.0000 -0.481257311
O   O16       1.0  0.32082  0.49093  0.36149  1.0000 -0.4704221673
O   O17       1.0  0.54452  0.74766  0.89015  1.0000 -0.5377023401
O   O18       1.0  0.45548  0.24766  0.60985  1.0000 -0.5377023401
O   O19       1.0  0.45548  0.25234  0.10985  1.0000 -0.5377023401
O   O20       1.0  0.54452  0.75234  0.39015  1.0000 -0.5377023401
O   O21       1.0  0.51164  0.79281  0.99503  1.0000 -0.4853717924
O   O22       1.0  0.48836  0.29281  0.50497  1.0000 -0.481257311
O   O23       1.0  0.48836  0.20719  0.00497  1.0000 -0.481257311
O   O24       1.0  0.51164  0.70719  0.49503  1.0000 -0.4853717924
O   O25       1.0  0.65761  0.08792  0.80599  1.0000 -0.5377023401
O   O26       1.0  0.34239  0.58792  0.69401  1.0000 -0.5377023401
O   O27       1.0  0.34239  0.91208  0.19401  1.0000 -0.5377023401
O   O28       1.0  0.65761  0.41208  0.30599  1.0000 -0.5377023401
O   O29       1.0  0.89586  0.11551  0.88163  1.0000 -0.4704221673
O   O30       1.0  0.10414  0.61551  0.61837  1.0000 -0.4704221673
O   O31       1.0  0.10414  0.88449  0.11837  1.0000 -0.4704221673
O   O32       1.0  0.89586  0.38449  0.38163  1.0000 -0.4704221673
O   O33       1.0  0.66514  0.02652  0.97841  1.0000 -0.5525865646
O   O34       1.0  0.33486  0.52652  0.52159  1.0000 -0.5525865646
O   O35       1.0  0.33486  0.97348  0.02159  1.0000 -0.5525865646
O   O36       1.0  0.66514  0.47348  0.47841  1.0000 -0.5525865646
O   O37       1.0  0.88873  0.10325  0.04046  1.0000 -0.481257311
O   O38       1.0  0.11127  0.60325  0.45954  1.0000 -0.481257311
O   O39       1.0  0.11127  0.89675  0.95954  1.0000 -0.481257311
O   O40       1.0  0.88873  0.39675  0.54046  1.0000 -0.481257311
O   O41       1.0  0.83450  0.84807  0.93450  1.0000 -0.5377023401
O   O42       1.0  0.16550  0.34807  0.56550  1.0000 -0.5377023401
O   O43       1.0  0.16550  0.15193  0.06550  1.0000 -0.5377023401
O   O44       1.0  0.83450  0.65193  0.43450  1.0000 -0.5377023401
O   O45       1.0  0.79203  0.63125  0.89817  1.0000 -0.481257311
O   O46       1.0  0.20797  0.13125  0.60183  1.0000 -0.481257311
O   O47       1.0  0.20797  0.36875  0.10183  1.0000 -0.481257311
O   O48       1.0  0.79203  0.86875  0.39817  1.0000 -0.481257311
