# DDEC6 charges by PACMAN v1.1 (https://github.com/mtap-research/PACMAN-charge/)
data_2007[Fe][dia]3[ASR]18
_chemical_formula_sum              "Fe12 H24 C24 O48"
_cell_length_a       11.3983
_cell_length_b       9.882
_cell_length_c       18.3252
_cell_angle_alpha    90
_cell_angle_beta     127.128
_cell_angle_gamma    90

_symmetry_space_group_name_H-M    "P 1"
_symmetry_Int_Tables_number       1

loop_
  _symmetry_equiv_pos_as_xyz
  'x, y, z'

loop_
  _atom_site_type_symbol
  _atom_site_label
  _atom_site_symmetry_multiplicity
  _atom_site_fract_x
  _atom_site_fract_y
  _atom_site_fract_z
  _atom_site_occupancy
  _atom_site_charge
Fe  Fe1       1.0  0.62409  0.91847  0.86804  1.0000 0.8757923324
Fe  Fe2       1.0  0.37591  0.41847  0.63196  1.0000 0.8757923324
Fe  Fe3       1.0  0.37591  0.08153  0.13196  1.0000 0.8757923324
Fe  Fe4       1.0  0.62409  0.58153  0.36804  1.0000 0.8757923324
Fe  Fe5       1.0  0.57300  0.89465  0.31283  1.0000 0.8875421513
Fe  Fe6       1.0  0.42700  0.39465  0.18717  1.0000 0.8875421513
Fe  Fe7       1.0  0.42700  0.10535  0.68717  1.0000 0.8875421513
Fe  Fe8       1.0  0.57300  0.60535  0.81283  1.0000 0.8875421513
Fe  Fe9       1.0  0.50000  0.00000  0.00000  1.0000 0.9323595841
Fe  Fe10      1.0  0.50000  0.50000  0.50000  1.0000 0.9323595841
Fe  Fe11      1.0  0.00000  0.00000  0.00000  1.0000 0.9535796125
Fe  Fe12      1.0  0.00000  0.50000  0.50000  1.0000 0.9535796125
H   H1        1.0  0.49360  0.75240  0.63390  1.0000 0.1218240433
H   H2        1.0  0.50640  0.25240  0.86610  1.0000 0.1218240433
H   H3        1.0  0.50640  0.24760  0.36610  1.0000 0.1218240433
H   H4        1.0  0.49360  0.74760  0.13390  1.0000 0.1218240433
H   H5        1.0  0.21030  0.02500  0.73450  1.0000 0.1279717635
H   H6        1.0  0.78970  0.52500  0.76550  1.0000 0.1279717635
H   H7        1.0  0.78970  0.97500  0.26550  1.0000 0.1279717635
H   H8        1.0  0.21030  0.47500  0.23450  1.0000 0.1279717635
H   H9        1.0  0.52080  0.61880  0.96210  1.0000 0.1279717635
H   H10       1.0  0.47920  0.11880  0.53790  1.0000 0.1279717635
H   H11       1.0  0.47920  0.38120  0.03790  1.0000 0.1279717635
H   H12       1.0  0.52080  0.88120  0.46210  1.0000 0.1279717635
H   H13       1.0  0.74750  0.18800  0.76720  1.0000 0.1218240433
H   H14       1.0  0.25250  0.68800  0.73280  1.0000 0.1218240433
H   H15       1.0  0.25250  0.81200  0.23280  1.0000 0.1218240433
H   H16       1.0  0.74750  0.31200  0.26720  1.0000 0.1218240433
H   H17       1.0  0.76600  0.16810  0.06600  1.0000 0.1279717635
H   H18       1.0  0.23400  0.66810  0.43400  1.0000 0.1279717635
H   H19       1.0  0.23400  0.83190  0.93400  1.0000 0.1279717635
H   H20       1.0  0.76600  0.33190  0.56600  1.0000 0.1279717635
H   H21       1.0  0.98080  0.70010  0.98930  1.0000 0.1279717635
H   H22       1.0  0.01920  0.20010  0.51070  1.0000 0.1354572703
H   H23       1.0  0.01920  0.29990  0.01070  1.0000 0.1354572703
H   H24       1.0  0.98080  0.79990  0.48930  1.0000 0.1279717635
C   C1        1.0  0.50010  0.82260  0.66999  1.0000 0.44228413
C   C2        1.0  0.49990  0.32260  0.83001  1.0000 0.44228413
C   C3        1.0  0.49990  0.17740  0.33001  1.0000 0.44228413
C   C4        1.0  0.50010  0.67740  0.16999  1.0000 0.44228413
C   C5        1.0  0.30400  0.00810  0.78791  1.0000 0.4234339077
C   C6        1.0  0.69600  0.50810  0.71209  1.0000 0.4234339077
C   C7        1.0  0.69600  0.99190  0.21209  1.0000 0.4251155336
C   C8        1.0  0.30400  0.49190  0.28791  1.0000 0.4234339077
C   C9        1.0  0.53070  0.71000  0.95450  1.0000 0.4234339077
C   C10       1.0  0.46930  0.21000  0.54550  1.0000 0.4234339077
C   C11       1.0  0.46930  0.29000  0.04550  1.0000 0.4234339077
C   C12       1.0  0.53070  0.79000  0.45450  1.0000 0.4234339077
C   C13       1.0  0.76570  0.12950  0.81279  1.0000 0.4234339077
C   C14       1.0  0.23430  0.62950  0.68721  1.0000 0.4234339077
C   C15       1.0  0.23430  0.87050  0.18721  1.0000 0.4251155336
C   C16       1.0  0.76570  0.37050  0.31279  1.0000 0.4234339077
C   C17       1.0  0.77360  0.10810  0.02985  1.0000 0.4560001422
C   C18       1.0  0.22640  0.60810  0.47015  1.0000 0.4560001422
C   C19       1.0  0.22640  0.89190  0.97015  1.0000 0.4560001422
C   C20       1.0  0.77360  0.39190  0.52985  1.0000 0.4560001422
C   C21       1.0  0.88020  0.71680  0.94886  1.0000 0.4560001422
C   C22       1.0  0.11980  0.21680  0.55114  1.0000 0.4560001422
C   C23       1.0  0.11980  0.28320  0.05114  1.0000 0.4560001422
C   C24       1.0  0.88020  0.78320  0.44886  1.0000 0.4560001422
O   O1        1.0  0.56280  0.79637  0.75377  1.0000 -0.533770613
O   O2        1.0  0.43720  0.29637  0.74623  1.0000 -0.533770613
O   O3        1.0  0.43720  0.20363  0.24623  1.0000 -0.533770613
O   O4        1.0  0.56280  0.70363  0.25377  1.0000 -0.5401241701
O   O5        1.0  0.44680  0.93257  0.63171  1.0000 -0.4701883913
O   O6        1.0  0.55320  0.43257  0.86829  1.0000 -0.4701883913
O   O7        1.0  0.55320  0.06743  0.36829  1.0000 -0.4701883913
O   O8        1.0  0.44680  0.56743  0.13171  1.0000 -0.4701883913
O   O9        1.0  0.40793  0.00102  0.78119  1.0000 -0.533770613
O   O10       1.0  0.59207  0.50102  0.71881  1.0000 -0.533770613
O   O11       1.0  0.59207  0.99898  0.21881  1.0000 -0.5401241701
O   O12       1.0  0.40793  0.49898  0.28119  1.0000 -0.5401241701
O   O13       1.0  0.31580  0.99460  0.85887  1.0000 -0.4701883913
O   O14       1.0  0.68420  0.49460  0.64113  1.0000 -0.4766115657
O   O15       1.0  0.68420  0.00540  0.14113  1.0000 -0.4766115657
O   O16       1.0  0.31580  0.50540  0.35887  1.0000 -0.4766115657
O   O17       1.0  0.54637  0.73921  0.89389  1.0000 -0.533770613
O   O18       1.0  0.45363  0.23921  0.60611  1.0000 -0.533770613
O   O19       1.0  0.45363  0.26079  0.10611  1.0000 -0.533770613
O   O20       1.0  0.54637  0.76079  0.39389  1.0000 -0.533770613
O   O21       1.0  0.52720  0.79027  0.00497  1.0000 -0.4875041541
O   O22       1.0  0.47280  0.29027  0.49503  1.0000 -0.4875041541
O   O23       1.0  0.47280  0.20973  0.99503  1.0000 -0.4875041541
O   O24       1.0  0.52720  0.70973  0.50497  1.0000 -0.4875041541
O   O25       1.0  0.65451  0.08163  0.80332  1.0000 -0.533770613
O   O26       1.0  0.34549  0.58163  0.69668  1.0000 -0.533770613
O   O27       1.0  0.34549  0.91837  0.19668  1.0000 -0.533770613
O   O28       1.0  0.65451  0.41837  0.30332  1.0000 -0.533770613
O   O29       1.0  0.89510  0.10700  0.87584  1.0000 -0.4701883913
O   O30       1.0  0.10490  0.60700  0.62416  1.0000 -0.4701883913
O   O31       1.0  0.10490  0.89300  0.12416  1.0000 -0.4701883913
O   O32       1.0  0.89510  0.39300  0.37584  1.0000 -0.4701883913
O   O33       1.0  0.66359  0.03008  0.97697  1.0000 -0.5519666712
O   O34       1.0  0.33641  0.53008  0.52303  1.0000 -0.5519666712
O   O35       1.0  0.33641  0.96992  0.02303  1.0000 -0.5519666712
O   O36       1.0  0.66359  0.46992  0.47697  1.0000 -0.5519666712
O   O37       1.0  0.88730  0.11130  0.03733  1.0000 -0.4766115657
O   O38       1.0  0.11270  0.61130  0.46267  1.0000 -0.4766115657
O   O39       1.0  0.11270  0.88870  0.96267  1.0000 -0.4766115657
O   O40       1.0  0.88730  0.38870  0.53733  1.0000 -0.4766115657
O   O41       1.0  0.83879  0.84029  0.94017  1.0000 -0.5401241701
O   O42       1.0  0.16121  0.34029  0.55983  1.0000 -0.5401241701
O   O43       1.0  0.16121  0.15971  0.05983  1.0000 -0.5519666712
O   O44       1.0  0.83879  0.65971  0.44017  1.0000 -0.5401241701
O   O45       1.0  0.79982  0.61840  0.90884  1.0000 -0.4766115657
O   O46       1.0  0.20018  0.11840  0.59116  1.0000 -0.4766115657
O   O47       1.0  0.20018  0.38160  0.09116  1.0000 -0.4766115657
O   O48       1.0  0.79982  0.88160  0.40884  1.0000 -0.4766115657
