# DDEC6 charges by PACMAN v1.1 (https://github.com/mtap-research/PACMAN-charge/)
data_2008[Er][nan]3[ASR]1
_chemical_formula_sum              "Er8 H24 C84 O48"
_cell_length_a       9.8442
_cell_length_b       29.2288
_cell_length_c       10.8795
_cell_angle_alpha    90
_cell_angle_beta     92.177
_cell_angle_gamma    90

_symmetry_space_group_name_H-M    "P 1"
_symmetry_Int_Tables_number       1

loop_
  _symmetry_equiv_pos_as_xyz
  'x, y, z'

loop_
  _atom_site_type_symbol
  _atom_site_label
  _atom_site_symmetry_multiplicity
  _atom_site_fract_x
  _atom_site_fract_y
  _atom_site_fract_z
  _atom_site_occupancy
  _atom_site_charge
Er  Er1       1.0  0.54517  0.91851  0.54156  1.0000 2.0706383138
Er  Er2       1.0  0.45483  0.41851  0.95844  1.0000 2.0706383138
Er  Er3       1.0  0.45483  0.08149  0.45844  1.0000 2.0706383138
Er  Er4       1.0  0.54517  0.58149  0.04156  1.0000 2.0706383138
Er  Er5       1.0  0.54026  0.74846  0.76341  1.0000 2.0345915704
Er  Er6       1.0  0.45974  0.24846  0.73658  1.0000 2.0385292917
Er  Er7       1.0  0.45974  0.25154  0.23658  1.0000 2.0345915704
Er  Er8       1.0  0.54026  0.75154  0.26341  1.0000 2.0385292917
H   H1        1.0  0.86590  0.71320  0.39319  1.0000 0.1204548037
H   H2        1.0  0.13410  0.21320  0.10680  1.0000 0.1204548037
H   H3        1.0  0.13410  0.28680  0.60680  1.0000 0.1204548037
H   H4        1.0  0.86590  0.78680  0.89319  1.0000 0.1204548037
H   H5        1.0  0.09400  0.70930  0.34509  1.0000 0.1204548037
H   H6        1.0  0.90600  0.20930  0.15490  1.0000 0.1204548037
H   H7        1.0  0.90600  0.29070  0.65490  1.0000 0.1204548037
H   H8        1.0  0.09400  0.79070  0.84509  1.0000 0.1204548037
H   H9        1.0  0.22000  0.89300  0.66259  1.0000 0.1204548037
H   H10       1.0  0.78000  0.39300  0.83740  1.0000 0.1204548037
H   H11       1.0  0.78000  0.10700  0.33740  1.0000 0.1204548037
H   H12       1.0  0.22000  0.60700  0.16259  1.0000 0.1204548037
H   H13       1.0  0.98670  0.90760  0.66449  1.0000 0.1204548037
H   H14       1.0  0.01330  0.40760  0.83551  1.0000 0.1204548037
H   H15       1.0  0.01330  0.09240  0.33550  1.0000 0.1204548037
H   H16       1.0  0.98670  0.59240  0.16449  1.0000 0.1204548037
H   H17       1.0  0.94310  0.98260  0.18940  1.0000 0.1204548037
H   H18       1.0  0.05690  0.48260  0.31061  1.0000 0.1204548037
H   H19       1.0  0.05690  0.01740  0.81060  1.0000 0.1204548037
H   H20       1.0  0.94310  0.51740  0.68939  1.0000 0.1204548037
H   H21       1.0  0.17520  0.98720  0.23539  1.0000 0.1342332288
H   H22       1.0  0.82480  0.48720  0.26460  1.0000 0.1342332288
H   H23       1.0  0.82480  0.01280  0.76460  1.0000 0.1342332288
H   H24       1.0  0.17520  0.51280  0.73540  1.0000 0.1342332288
C   C1        1.0  0.92480  0.84871  0.58740  1.0000 -0.0477756169
C   C2        1.0  0.07520  0.34871  0.91260  1.0000 -0.0477756169
C   C3        1.0  0.07520  0.15129  0.41260  1.0000 -0.0477756169
C   C4        1.0  0.92480  0.65129  0.08739  1.0000 -0.0477756169
C   C5        1.0  0.96910  0.80702  0.53229  1.0000 0.0408286529
C   C6        1.0  0.03090  0.30702  0.96770  1.0000 0.0408286529
C   C7        1.0  0.03090  0.19298  0.46770  1.0000 0.0408286529
C   C8        1.0  0.96910  0.69298  0.03229  1.0000 0.0408286529
C   C9        1.0  0.87900  0.77145  0.49049  1.0000 -0.0686746613
C   C10       1.0  0.12100  0.27145  0.00950  1.0000 -0.0686746613
C   C11       1.0  0.12100  0.22855  0.50950  1.0000 -0.0686746613
C   C12       1.0  0.87900  0.72855  0.99050  1.0000 -0.0686746613
C   C13       1.0  0.92600  0.73567  0.42199  1.0000 -0.1173221051
C   C14       1.0  0.07400  0.23567  0.07801  1.0000 -0.1173221051
C   C15       1.0  0.07400  0.26433  0.57800  1.0000 -0.1173221051
C   C16       1.0  0.92600  0.76433  0.92199  1.0000 -0.1173221051
C   C17       1.0  0.06450  0.73282  0.39499  1.0000 -0.1019084637
C   C18       1.0  0.93550  0.23282  0.10501  1.0000 -0.1019084637
C   C19       1.0  0.93550  0.26718  0.60500  1.0000 -0.1019084637
C   C20       1.0  0.06450  0.76718  0.89499  1.0000 -0.1019084637
C   C21       1.0  0.15700  0.76429  0.44139  1.0000 -0.0477756169
C   C22       1.0  0.84300  0.26429  0.05860  1.0000 -0.0477756169
C   C23       1.0  0.84300  0.23571  0.55860  1.0000 -0.0477756169
C   C24       1.0  0.15700  0.73571  0.94139  1.0000 -0.0477756169
C   C25       1.0  0.11190  0.80113  0.51680  1.0000 0.0408286529
C   C26       1.0  0.88810  0.30113  0.98320  1.0000 0.0408286529
C   C27       1.0  0.88810  0.19887  0.48320  1.0000 0.0408286529
C   C28       1.0  0.11190  0.69887  0.01680  1.0000 0.0408286529
C   C29       1.0  0.20540  0.83274  0.57510  1.0000 -0.0602623327
C   C30       1.0  0.79460  0.33274  0.92490  1.0000 -0.0602623327
C   C31       1.0  0.79460  0.16726  0.42490  1.0000 -0.0602623327
C   C32       1.0  0.20540  0.66726  0.07509  1.0000 -0.0602623327
C   C33       1.0  0.15870  0.87188  0.62849  1.0000 -0.1019084637
C   C34       1.0  0.84130  0.37188  0.87150  1.0000 -0.1019084637
C   C35       1.0  0.84130  0.12812  0.37150  1.0000 -0.1019084637
C   C36       1.0  0.15870  0.62812  0.12849  1.0000 -0.1019084637
C   C37       1.0  0.01730  0.88026  0.63169  1.0000 -0.1019084637
C   C38       1.0  0.98270  0.38026  0.86830  1.0000 -0.1053668739
C   C39       1.0  0.98270  0.11974  0.36830  1.0000 -0.1019084637
C   C40       1.0  0.01730  0.61974  0.13170  1.0000 -0.1019084637
C   C41       1.0  0.78110  0.86496  0.57909  1.0000 0.5849775224
C   C42       1.0  0.21890  0.36496  0.92090  1.0000 0.5918241172
C   C43       1.0  0.21890  0.13504  0.42090  1.0000 0.5849775224
C   C44       1.0  0.78110  0.63504  0.07909  1.0000 0.5849775224
C   C45       1.0  0.73300  0.76708  0.52909  1.0000 0.6805087103
C   C46       1.0  0.26700  0.26708  0.97091  1.0000 0.6805087103
C   C47       1.0  0.26700  0.23292  0.47091  1.0000 0.6805087103
C   C48       1.0  0.73300  0.73292  0.02909  1.0000 0.6805087103
C   C49       1.0  0.35350  0.82227  0.59909  1.0000 0.6805087103
C   C50       1.0  0.64650  0.32227  0.90090  1.0000 0.6805087103
C   C51       1.0  0.64650  0.17773  0.40090  1.0000 0.6805087103
C   C52       1.0  0.35350  0.67773  0.09909  1.0000 0.6805087103
C   C53       1.0  0.29820  0.76138  0.39530  1.0000 0.5918241172
C   C54       1.0  0.70180  0.26138  0.10471  1.0000 0.5918241172
C   C55       1.0  0.70180  0.23862  0.60471  1.0000 0.5918241172
C   C56       1.0  0.29820  0.73862  0.89529  1.0000 0.5918241172
C   C57       1.0  0.88160  0.98931  0.36129  1.0000 -0.0602623327
C   C58       1.0  0.11840  0.48931  0.13870  1.0000 -0.0602623327
C   C59       1.0  0.11840  0.01069  0.63870  1.0000 -0.0602623327
C   C60       1.0  0.88160  0.51069  0.86129  1.0000 -0.0602623327
C   C61       1.0  0.97380  0.98633  0.27059  1.0000 -0.1173221051
C   C62       1.0  0.02620  0.48633  0.22940  1.0000 -0.1173221051
C   C63       1.0  0.02620  0.01367  0.72940  1.0000 -0.1173221051
C   C64       1.0  0.97380  0.51367  0.77060  1.0000 -0.1173221051
C   C65       1.0  0.11410  0.98888  0.29840  1.0000 -0.1053668739
C   C66       1.0  0.88590  0.48888  0.20161  1.0000 -0.1053668739
C   C67       1.0  0.88590  0.01112  0.70160  1.0000 -0.1053668739
C   C68       1.0  0.11410  0.51112  0.79839  1.0000 -0.1053668739
C   C69       1.0  0.16140  0.99382  0.41690  1.0000 -0.0602623327
C   C70       1.0  0.83860  0.49382  0.08310  1.0000 -0.0602623327
C   C71       1.0  0.83860  0.00618  0.58310  1.0000 -0.0602623327
C   C72       1.0  0.16140  0.50618  0.91690  1.0000 -0.0602623327
C   C73       1.0  0.92820  0.99883  0.48579  1.0000 0.0408286529
C   C74       1.0  0.07180  0.49883  0.01420  1.0000 0.0408286529
C   C75       1.0  0.07180  0.00117  0.51421  1.0000 0.0408286529
C   C76       1.0  0.92820  0.50117  0.98579  1.0000 0.0408286529
C   C77       1.0  0.73700  0.97647  0.32710  1.0000 0.6264600902
C   C78       1.0  0.26300  0.47647  0.17290  1.0000 0.6264600902
C   C79       1.0  0.26300  0.02353  0.67290  1.0000 0.6264600902
C   C80       1.0  0.73700  0.52353  0.82709  1.0000 0.6264600902
C   C81       1.0  0.31120  0.98583  0.44079  1.0000 0.6361313312
C   C82       1.0  0.68880  0.48583  0.05920  1.0000 0.6361313312
C   C83       1.0  0.68880  0.01417  0.55920  1.0000 0.6361313312
C   C84       1.0  0.31120  0.51417  0.94080  1.0000 0.6361313312
O   O1        1.0  0.71210  0.77251  0.64069  1.0000 -0.673276946
O   O2        1.0  0.28790  0.27251  0.85930  1.0000 -0.673276946
O   O3        1.0  0.28790  0.22749  0.35930  1.0000 -0.673276946
O   O4        1.0  0.71210  0.72749  0.14069  1.0000 -0.673276946
O   O5        1.0  0.64360  0.75494  0.45069  1.0000 -0.7206669898
O   O6        1.0  0.35640  0.25494  0.04931  1.0000 -0.7206669898
O   O7        1.0  0.35640  0.24506  0.54930  1.0000 -0.7206669898
O   O8        1.0  0.64360  0.74506  0.95069  1.0000 -0.7206669898
O   O9        1.0  0.70790  0.85831  0.48439  1.0000 -0.5965902359
O   O10       1.0  0.29210  0.35831  0.01561  1.0000 -0.5965902359
O   O11       1.0  0.29210  0.14169  0.51560  1.0000 -0.5965902359
O   O12       1.0  0.70790  0.64169  0.98439  1.0000 -0.5965902359
O   O13       1.0  0.73590  0.89045  0.66419  1.0000 -0.6606009305
O   O14       1.0  0.26410  0.39045  0.83581  1.0000 -0.6606009305
O   O15       1.0  0.26410  0.10955  0.33581  1.0000 -0.6606009305
O   O16       1.0  0.73590  0.60955  0.16419  1.0000 -0.6606009305
O   O17       1.0  0.38390  0.78221  0.63039  1.0000 -0.6606009305
O   O18       1.0  0.61610  0.28221  0.86960  1.0000 -0.6606009305
O   O19       1.0  0.61610  0.21779  0.36960  1.0000 -0.6606009305
O   O20       1.0  0.38390  0.71779  0.13039  1.0000 -0.6606009305
O   O21       1.0  0.43780  0.85442  0.59630  1.0000 -0.7002850623
O   O22       1.0  0.56220  0.35442  0.90370  1.0000 -0.7002850623
O   O23       1.0  0.56220  0.14558  0.40370  1.0000 -0.7002850623
O   O24       1.0  0.43780  0.64558  0.09630  1.0000 -0.7002850623
O   O25       1.0  0.35540  0.72276  0.38870  1.0000 -0.6297995523
O   O26       1.0  0.64460  0.22276  0.11131  1.0000 -0.6297995523
O   O27       1.0  0.64460  0.27724  0.61130  1.0000 -0.6297995523
O   O28       1.0  0.35540  0.77724  0.88870  1.0000 -0.6297995523
O   O29       1.0  0.35540  0.79630  0.35399  1.0000 -0.6297995523
O   O30       1.0  0.64460  0.29630  0.14600  1.0000 -0.6297995523
O   O31       1.0  0.64460  0.20370  0.64601  1.0000 -0.6297995523
O   O32       1.0  0.35540  0.70370  0.85399  1.0000 -0.6297995523
O   O33       1.0  0.67760  0.94987  0.39929  1.0000 -0.7002850623
O   O34       1.0  0.32240  0.44987  0.10071  1.0000 -0.7002850623
O   O35       1.0  0.32240  0.05013  0.60070  1.0000 -0.7002850623
O   O36       1.0  0.67760  0.55013  0.89929  1.0000 -0.7002850623
O   O37       1.0  0.68540  0.99068  0.22739  1.0000 -0.4682326168
O   O38       1.0  0.31460  0.49068  0.27260  1.0000 -0.4682326168
O   O39       1.0  0.31460  0.00932  0.77260  1.0000 -0.4682326168
O   O40       1.0  0.68540  0.50932  0.72740  1.0000 -0.4682326168
O   O41       1.0  0.39400  0.00988  0.38379  1.0000 -0.6606009305
O   O42       1.0  0.60600  0.50988  0.11620  1.0000 -0.6606009305
O   O43       1.0  0.60600  0.99012  0.61621  1.0000 -0.6606009305
O   O44       1.0  0.39400  0.49012  0.88379  1.0000 -0.6606009305
O   O45       1.0  0.34140  0.95385  0.51409  1.0000 -0.6759613008
O   O46       1.0  0.65860  0.45385  0.98591  1.0000 -0.6759613008
O   O47       1.0  0.65860  0.04615  0.48590  1.0000 -0.6759613008
O   O48       1.0  0.34140  0.54615  0.01409  1.0000 -0.6759613008
