# DDEC6 charges by PACMAN v1.1 (https://github.com/mtap-research/PACMAN-charge/)
data_0000[Nd][sqc]3[ASR]1
_chemical_formula_sum              "Nd2 H24 C18 O12"
_cell_length_a       8.6266
_cell_length_b       9.919
_cell_length_c       11.694
_cell_angle_alpha    105.3
_cell_angle_beta     110.25
_cell_angle_gamma    85.92

_symmetry_space_group_name_H-M    "P 1"
_symmetry_Int_Tables_number       1

loop_
  _symmetry_equiv_pos_as_xyz
  'x, y, z'

loop_
  _atom_site_type_symbol
  _atom_site_label
  _atom_site_symmetry_multiplicity
  _atom_site_fract_x
  _atom_site_fract_y
  _atom_site_fract_z
  _atom_site_occupancy
  _atom_site_charge
Nd  Nd1       1.0  0.24553  0.47759  0.98816  1.0000 2.0671394841
Nd  Nd2       1.0  0.75447  0.52241  0.01184  1.0000 2.0671394841
H   H1        1.0  0.23200  0.52570  0.67180  1.0000 0.1405803364
H   H2        1.0  0.76800  0.47430  0.32820  1.0000 0.1405803364
H   H3        1.0  0.25290  0.68790  0.72560  1.0000 0.1405803364
H   H4        1.0  0.74710  0.31210  0.27440  1.0000 0.1405803364
H   H5        1.0  0.40540  0.70250  0.60320  1.0000 0.0980900527
H   H6        1.0  0.59460  0.29750  0.39680  1.0000 0.0980900527
H   H7        1.0  0.41530  0.53910  0.56120  1.0000 0.0900558346
H   H8        1.0  0.58470  0.46090  0.43880  1.0000 0.0900558346
H   H9        1.0  0.12220  0.69080  0.49240  1.0000 0.0900558346
H   H10       1.0  0.87780  0.30920  0.50760  1.0000 0.0900558346
H   H11       1.0  0.12430  0.52720  0.45670  1.0000 0.0900558346
H   H12       1.0  0.87570  0.47280  0.54330  1.0000 0.0900558346
H   H13       1.0  0.29490  0.53910  0.33690  1.0000 0.1296921895
H   H14       1.0  0.70510  0.46090  0.66310  1.0000 0.1296921895
H   H15       1.0  0.26690  0.70030  0.36270  1.0000 0.1405803364
H   H16       1.0  0.73310  0.29970  0.63730  1.0000 0.1405803364
H   H17       1.0  0.25010  0.98250  0.78260  1.0000 0.1186229066
H   H18       1.0  0.74990  0.01750  0.21740  1.0000 0.1186229066
H   H19       1.0  0.22020  0.97090  0.90460  1.0000 0.1296921895
H   H20       1.0  0.77980  0.02910  0.09540  1.0000 0.1296921895
H   H21       1.0  0.47850  0.87950  0.89900  1.0000 0.0900558346
H   H22       1.0  0.52150  0.12050  0.10100  1.0000 0.0900558346
H   H23       1.0  0.53430  0.02610  0.89800  1.0000 0.0900558346
H   H24       1.0  0.46570  0.97390  0.10200  1.0000 0.0900558346
C   C1        1.0  0.45500  0.58460  0.80740  1.0000 0.6638084428
C   C2        1.0  0.54500  0.41540  0.19260  1.0000 0.6638084428
C   C3        1.0  0.30850  0.60390  0.69740  1.0000 -0.3392645194
C   C4        1.0  0.69150  0.39610  0.30260  1.0000 -0.3392645194
C   C5        1.0  0.34550  0.61540  0.58320  1.0000 -0.1338419168
C   C6        1.0  0.65450  0.38460  0.41680  1.0000 -0.1338419168
C   C7        1.0  0.18780  0.61070  0.47140  1.0000 -0.1338419168
C   C8        1.0  0.81220  0.38930  0.52860  1.0000 -0.1338419168
C   C9        1.0  0.21660  0.61110  0.35120  1.0000 -0.3392645194
C   C10       1.0  0.78340  0.38890  0.64880  1.0000 -0.3392645194
C   C11       1.0  0.06470  0.58740  0.23580  1.0000 0.6715236084
C   C12       1.0  0.93530  0.41260  0.76420  1.0000 0.6715236084
C   C13       1.0  0.26070  0.17220  0.90760  1.0000 0.620837249
C   C14       1.0  0.73930  0.82780  0.09240  1.0000 0.620837249
C   C15       1.0  0.28700  0.01710  0.87370  1.0000 -0.3130054696
C   C16       1.0  0.71300  0.98290  0.12630  1.0000 -0.3130054696
C   C17       1.0  0.46750  0.97950  0.92860  1.0000 -0.1399756371
C   C18       1.0  0.53250  0.02050  0.07140  1.0000 -0.1399756371
O   O1        1.0  0.43100  0.53530  0.88962  1.0000 -0.726562403
O   O2        1.0  0.56900  0.46470  0.11038  1.0000 -0.726562403
O   O3        1.0  0.59980  0.61560  0.81989  1.0000 -0.6117072626
O   O4        1.0  0.40020  0.38440  0.18011  1.0000 -0.6117072626
O   O5        1.0  0.07700  0.54410  0.12717  1.0000 -0.7419203742
O   O6        1.0  0.92300  0.45590  0.87283  1.0000 -0.7419203742
O   O7        1.0  0.92360  0.60670  0.24590  1.0000 -0.6189870163
O   O8        1.0  0.07640  0.39330  0.75410  1.0000 -0.6189870163
O   O9        1.0  0.36290  0.25380  0.90250  1.0000 -0.6475988551
O   O10       1.0  0.63710  0.74620  0.09750  1.0000 -0.6475988551
O   O11       1.0  0.14100  0.21970  0.94230  1.0000 -0.625456415
O   O12       1.0  0.85900  0.78030  0.05770  1.0000 -0.625456415
