# DDEC6 charges by PACMAN v1.1 (https://github.com/mtap-research/PACMAN-charge/)
data_2002[Cd][nan]3[ASR]1
_chemical_formula_sum              "Cd6 H18 C54 O36"
_cell_length_a       15.7547
_cell_length_b       15.7547
_cell_length_c       7.9316
_cell_angle_alpha    90
_cell_angle_beta     90
_cell_angle_gamma    120

_symmetry_space_group_name_H-M    "P 1"
_symmetry_Int_Tables_number       1

loop_
  _symmetry_equiv_pos_as_xyz
  'x, y, z'

loop_
  _atom_site_type_symbol
  _atom_site_label
  _atom_site_symmetry_multiplicity
  _atom_site_fract_x
  _atom_site_fract_y
  _atom_site_fract_z
  _atom_site_occupancy
  _atom_site_charge
Cd  Cd1       1.0  0.37406  0.31546  0.01218  1.0000 1.0270268036
Cd  Cd2       1.0  0.68454  0.05860  0.01218  1.0000 1.0270268036
Cd  Cd3       1.0  0.94140  0.62594  0.01218  1.0000 1.0270268036
Cd  Cd4       1.0  0.31546  0.37406  0.51218  1.0000 1.0270268036
Cd  Cd5       1.0  0.05860  0.68454  0.51218  1.0000 1.0270268036
Cd  Cd6       1.0  0.62594  0.94140  0.51218  1.0000 1.0270268036
H   H1        1.0  0.44840  0.08320  0.30600  1.0000 0.1372962069
H   H2        1.0  0.91680  0.36520  0.30600  1.0000 0.1372962069
H   H3        1.0  0.63480  0.55160  0.30600  1.0000 0.1372962069
H   H4        1.0  0.08320  0.44840  0.80600  1.0000 0.1372962069
H   H5        1.0  0.36520  0.91680  0.80600  1.0000 0.1372962069
H   H6        1.0  0.55160  0.63480  0.80600  1.0000 0.1372962069
H   H7        1.0  0.26730  0.79350  0.30400  1.0000 0.1372962069
H   H8        1.0  0.20650  0.47380  0.30400  1.0000 0.1372962069
H   H9        1.0  0.52620  0.73270  0.30400  1.0000 0.1372962069
H   H10       1.0  0.79350  0.26730  0.80400  1.0000 0.1372962069
H   H11       1.0  0.47380  0.20650  0.80400  1.0000 0.1372962069
H   H12       1.0  0.73270  0.52620  0.80400  1.0000 0.1372962069
H   H13       1.0  0.18630  0.96850  0.07800  1.0000 0.1372962069
H   H14       1.0  0.03150  0.21780  0.07800  1.0000 0.1372962069
H   H15       1.0  0.78220  0.81370  0.07800  1.0000 0.1372962069
H   H16       1.0  0.96850  0.18630  0.57800  1.0000 0.1372962069
H   H17       1.0  0.21780  0.03150  0.57800  1.0000 0.1372962069
H   H18       1.0  0.81370  0.78220  0.57800  1.0000 0.1372962069
C   C1        1.0  0.32010  0.04320  0.18620  1.0000 -0.0032157144
C   C2        1.0  0.95680  0.27690  0.18620  1.0000 -0.0032157144
C   C3        1.0  0.72310  0.67990  0.18620  1.0000 -0.0032157144
C   C4        1.0  0.04320  0.32010  0.68620  1.0000 -0.0032157144
C   C5        1.0  0.27690  0.95680  0.68620  1.0000 -0.0032157144
C   C6        1.0  0.67990  0.72310  0.68620  1.0000 -0.0032157144
C   C7        1.0  0.38920  0.02900  0.27450  1.0000 -0.0826242988
C   C8        1.0  0.97100  0.36020  0.27450  1.0000 -0.0826242988
C   C9        1.0  0.63980  0.61080  0.27450  1.0000 -0.0826242988
C   C10       1.0  0.02900  0.38920  0.77450  1.0000 -0.0826242988
C   C11       1.0  0.36020  0.97100  0.77450  1.0000 -0.0826242988
C   C12       1.0  0.61080  0.63980  0.77450  1.0000 -0.0826242988
C   C13       1.0  0.37090  0.93650  0.31540  1.0000 -0.0105318302
C   C14       1.0  0.06350  0.43440  0.31540  1.0000 -0.0105318302
C   C15       1.0  0.56560  0.62910  0.31540  1.0000 -0.0105318302
C   C16       1.0  0.93650  0.37090  0.81540  1.0000 -0.0105318302
C   C17       1.0  0.43440  0.06350  0.81540  1.0000 -0.0105318302
C   C18       1.0  0.62910  0.56560  0.81540  1.0000 -0.0105318302
C   C19       1.0  0.33850  0.14210  0.13780  1.0000 0.5345538967
C   C20       1.0  0.85790  0.19640  0.13780  1.0000 0.5345538967
C   C21       1.0  0.80360  0.66150  0.13780  1.0000 0.5345538967
C   C22       1.0  0.14210  0.33850  0.63780  1.0000 0.5345538967
C   C23       1.0  0.19640  0.85790  0.63780  1.0000 0.5345538967
C   C24       1.0  0.66150  0.80360  0.63780  1.0000 0.5345538967
C   C25       1.0  0.11790  0.78130  0.12750  1.0000 0.5737054063
C   C26       1.0  0.21870  0.33660  0.12750  1.0000 0.5737054063
C   C27       1.0  0.66340  0.88210  0.12750  1.0000 0.5737054063
C   C28       1.0  0.78130  0.11790  0.62750  1.0000 0.5737054063
C   C29       1.0  0.33660  0.21870  0.62750  1.0000 0.5737054063
C   C30       1.0  0.88210  0.66340  0.62750  1.0000 0.5737054063
C   C31       1.0  0.44680  0.92110  0.39920  1.0000 0.5504721118
C   C32       1.0  0.07890  0.52570  0.39920  1.0000 0.5504721118
C   C33       1.0  0.47430  0.55320  0.39920  1.0000 0.5504721118
C   C34       1.0  0.92110  0.44680  0.89920  1.0000 0.5504721118
C   C35       1.0  0.52570  0.07890  0.89920  1.0000 0.5504721118
C   C36       1.0  0.55320  0.47430  0.89920  1.0000 0.5504721118
C   C37       1.0  0.28120  0.85600  0.27220  1.0000 -0.0826242988
C   C38       1.0  0.14400  0.42520  0.27220  1.0000 -0.0826242988
C   C39       1.0  0.57480  0.71880  0.27220  1.0000 -0.0826242988
C   C40       1.0  0.85600  0.28120  0.77220  1.0000 -0.0826242988
C   C41       1.0  0.42520  0.14400  0.77220  1.0000 -0.0826242988
C   C42       1.0  0.71880  0.57480  0.77220  1.0000 -0.0826242988
C   C43       1.0  0.21150  0.86770  0.18140  1.0000 -0.0247293813
C   C44       1.0  0.13230  0.34380  0.18140  1.0000 -0.0247293813
C   C45       1.0  0.65620  0.78850  0.18140  1.0000 -0.0256983923
C   C46       1.0  0.86770  0.21150  0.68140  1.0000 -0.0247293813
C   C47       1.0  0.34380  0.13230  0.68140  1.0000 -0.0247293813
C   C48       1.0  0.78850  0.65620  0.68140  1.0000 -0.0247293813
C   C49       1.0  0.23210  0.96040  0.13930  1.0000 -0.0933382609
C   C50       1.0  0.03960  0.27170  0.13930  1.0000 -0.0933382609
C   C51       1.0  0.72830  0.76790  0.13930  1.0000 -0.0933382609
C   C52       1.0  0.96040  0.23210  0.63930  1.0000 -0.0933382609
C   C53       1.0  0.27170  0.03960  0.63930  1.0000 -0.0933382609
C   C54       1.0  0.76790  0.72830  0.63930  1.0000 -0.0933382609
O   O1        1.0  0.26920  0.14930  0.07410  1.0000 -0.4718255189
O   O2        1.0  0.85070  0.11990  0.07410  1.0000 -0.4718255189
O   O3        1.0  0.88010  0.73080  0.07410  1.0000 -0.4718255189
O   O4        1.0  0.14930  0.26920  0.57410  1.0000 -0.4718255189
O   O5        1.0  0.11990  0.85070  0.57410  1.0000 -0.4718255189
O   O6        1.0  0.73080  0.88010  0.57410  1.0000 -0.4718255189
O   O7        1.0  0.42290  0.21590  0.15560  1.0000 -0.4631927
O   O8        1.0  0.78410  0.20700  0.15560  1.0000 -0.4631927
O   O9        1.0  0.79300  0.57710  0.15560  1.0000 -0.4631927
O   O10       1.0  0.21590  0.42290  0.65560  1.0000 -0.4631927
O   O11       1.0  0.20700  0.78410  0.65560  1.0000 -0.4631927
O   O12       1.0  0.57710  0.79300  0.65560  1.0000 -0.4631927
O   O13       1.0  0.07070  0.70800  0.22510  1.0000 -0.519235858
O   O14       1.0  0.29200  0.36270  0.22510  1.0000 -0.519235858
O   O15       1.0  0.63730  0.92930  0.22510  1.0000 -0.519235858
O   O16       1.0  0.70800  0.07070  0.72510  1.0000 -0.519235858
O   O17       1.0  0.36270  0.29200  0.72510  1.0000 -0.519235858
O   O18       1.0  0.92930  0.63730  0.72510  1.0000 -0.519235858
O   O19       1.0  0.08670  0.78130  0.98320  1.0000 -0.4369694279
O   O20       1.0  0.21870  0.30540  0.98320  1.0000 -0.4369694279
O   O21       1.0  0.69460  0.91330  0.98320  1.0000 -0.4369694279
O   O22       1.0  0.78130  0.08670  0.48320  1.0000 -0.4369694279
O   O23       1.0  0.30540  0.21870  0.48320  1.0000 -0.4369694279
O   O24       1.0  0.91330  0.69460  0.48320  1.0000 -0.4369694279
O   O25       1.0  0.52520  0.99650  0.45140  1.0000 -0.4898963856
O   O26       1.0  0.00350  0.52870  0.45140  1.0000 -0.4898963856
O   O27       1.0  0.47130  0.47480  0.45140  1.0000 -0.4898963856
O   O28       1.0  0.99650  0.52520  0.95140  1.0000 -0.4898963856
O   O29       1.0  0.52870  0.00350  0.95140  1.0000 -0.4898963856
O   O30       1.0  0.47480  0.47130  0.95140  1.0000 -0.4898963856
O   O31       1.0  0.43490  0.83690  0.41630  1.0000 -0.4193016625
O   O32       1.0  0.16310  0.59800  0.41630  1.0000 -0.4193016625
O   O33       1.0  0.40200  0.56510  0.41630  1.0000 -0.4193016625
O   O34       1.0  0.83690  0.43490  0.91630  1.0000 -0.4193016625
O   O35       1.0  0.59800  0.16310  0.91630  1.0000 -0.4193016625
O   O36       1.0  0.56510  0.40200  0.91630  1.0000 -0.4193016625
