# DDEC6 charges by PACMAN v1.1 (https://github.com/mtap-research/PACMAN-charge/)
data_2013[Cd][lvt]3[ASR]1
_chemical_formula_sum              "Cd8 H64 C96 N16 O32"
_cell_length_a       17.4814
_cell_length_b       17.4814
_cell_length_c       17.4814
_cell_angle_alpha    100.783
_cell_angle_beta     100.783
_cell_angle_gamma    128.741

_symmetry_space_group_name_H-M    "P 1"
_symmetry_Int_Tables_number       1

loop_
  _symmetry_equiv_pos_as_xyz
  'x, y, z'

loop_
  _atom_site_type_symbol
  _atom_site_label
  _atom_site_symmetry_multiplicity
  _atom_site_fract_x
  _atom_site_fract_y
  _atom_site_fract_z
  _atom_site_occupancy
  _atom_site_charge
Cd  Cd1       1.0  0.08525  0.40157  0.83816  1.0000 0.884622883
Cd  Cd2       1.0  0.49709  0.83525  0.18368  1.0000 0.8858694844
Cd  Cd3       1.0  0.56341  0.24709  0.16184  1.0000 0.8858694844
Cd  Cd4       1.0  0.65157  0.31341  0.81632  1.0000 0.8858694844
Cd  Cd5       1.0  0.16475  0.34843  0.66184  1.0000 0.884622883
Cd  Cd6       1.0  0.75291  0.91475  0.31632  1.0000 0.8858694844
Cd  Cd7       1.0  0.68659  0.50291  0.33816  1.0000 0.8858694844
Cd  Cd8       1.0  0.59843  0.43659  0.68368  1.0000 0.8858694844
H   H1        1.0  0.42990  0.66180  0.84270  1.0000 0.359218128
H   H2        1.0  0.83720  0.17990  0.26810  1.0000 0.359218128
H   H3        1.0  0.81910  0.58720  0.15730  1.0000 0.359218128
H   H4        1.0  0.91180  0.56910  0.73190  1.0000 0.359218128
H   H5        1.0  0.82010  0.08820  0.65730  1.0000 0.359218128
H   H6        1.0  0.41280  0.57010  0.23190  1.0000 0.359218128
H   H7        1.0  0.43090  0.16280  0.34270  1.0000 0.359218128
H   H8        1.0  0.33820  0.18090  0.76810  1.0000 0.359218128
H   H9        1.0  0.26420  0.58760  0.17100  1.0000 0.1117792614
H   H10       1.0  0.34320  0.01420  0.17660  1.0000 0.1117792614
H   H11       1.0  0.41660  0.09320  0.82900  1.0000 0.1117792614
H   H12       1.0  0.83760  0.16660  0.82340  1.0000 0.1117792614
H   H13       1.0  0.98580  0.16240  0.32900  1.0000 0.1117792614
H   H14       1.0  0.90680  0.73580  0.32340  1.0000 0.1117792614
H   H15       1.0  0.83340  0.65680  0.67100  1.0000 0.1117792614
H   H16       1.0  0.41240  0.58340  0.67660  1.0000 0.1117792614
H   H17       1.0  0.15230  0.56230  0.23840  1.0000 0.1200258154
H   H18       1.0  0.16390  0.90230  0.09000  1.0000 0.1200258154
H   H19       1.0  0.32390  0.91390  0.76160  1.0000 0.1200258154
H   H20       1.0  0.81230  0.07390  0.91000  1.0000 0.1200258154
H   H21       1.0  0.09770  0.18770  0.26160  1.0000 0.1200258154
H   H22       1.0  0.08610  0.84770  0.41000  1.0000 0.1200258154
H   H23       1.0  0.92610  0.83610  0.73840  1.0000 0.1200258154
H   H24       1.0  0.43770  0.67610  0.59000  1.0000 0.1200258154
H   H25       1.0  0.98460  0.55880  0.04380  1.0000 0.1200258154
H   H26       1.0  0.19080  0.73460  0.92580  1.0000 0.1200258154
H   H27       1.0  0.51500  0.94080  0.95620  1.0000 0.1200258154
H   H28       1.0  0.80880  0.26500  0.07420  1.0000 0.1200258154
H   H29       1.0  0.26540  0.19120  0.45620  1.0000 0.1200258154
H   H30       1.0  0.05920  0.01540  0.57420  1.0000 0.1200258154
H   H31       1.0  0.73500  0.80920  0.54380  1.0000 0.1200258154
H   H32       1.0  0.44120  0.48500  0.42580  1.0000 0.1200258154
H   H33       1.0  0.09640  0.58420  0.97640  1.0000 0.1117792614
H   H34       1.0  0.37000  0.84640  0.01220  1.0000 0.1117792614
H   H35       1.0  0.60780  0.12000  0.02360  1.0000 0.1117792614
H   H36       1.0  0.83420  0.35780  0.98780  1.0000 0.1117792614
H   H37       1.0  0.15360  0.16580  0.52360  1.0000 0.1117792614
H   H38       1.0  0.88000  0.90360  0.48780  1.0000 0.1117792614
H   H39       1.0  0.64220  0.63000  0.47640  1.0000 0.1117792614
H   H40       1.0  0.41580  0.39220  0.51220  1.0000 0.1117792614
H   H41       1.0  0.99640  0.52720  0.23180  1.0000 0.1536221616
H   H42       1.0  0.01460  0.74640  0.96920  1.0000 0.1536221616
H   H43       1.0  0.29540  0.76460  0.76820  1.0000 0.1536221616
H   H44       1.0  0.77720  0.04540  0.03080  1.0000 0.1536221616
H   H45       1.0  0.25360  0.22280  0.26820  1.0000 0.1536221616
H   H46       1.0  0.23540  0.00360  0.53080  1.0000 0.1536221616
H   H47       1.0  0.95460  0.98540  0.73180  1.0000 0.1536221616
H   H48       1.0  0.47280  0.70460  0.46920  1.0000 0.1536221616
H   H49       1.0  0.97530  0.58430  0.18480  1.0000 0.1313257376
H   H50       1.0  0.04050  0.72530  0.89100  1.0000 0.1313257376
H   H51       1.0  0.39950  0.79050  0.81520  1.0000 0.1313257376
H   H52       1.0  0.83430  0.14950  0.10900  1.0000 0.1313257376
H   H53       1.0  0.27470  0.16570  0.31520  1.0000 0.1313257376
H   H54       1.0  0.20950  0.02470  0.60900  1.0000 0.1313257376
H   H55       1.0  0.85050  0.95950  0.68480  1.0000 0.1313257376
H   H56       1.0  0.41570  0.60050  0.39100  1.0000 0.1313257376
H   H57       1.0  0.91110  0.46280  0.13830  1.0000 0.1313257376
H   H58       1.0  0.02280  0.66110  0.94830  1.0000 0.1313257376
H   H59       1.0  0.32450  0.77280  0.86170  1.0000 0.1313257376
H   H60       1.0  0.71280  0.07450  0.05170  1.0000 0.1313257376
H   H61       1.0  0.33890  0.28720  0.36170  1.0000 0.1313257376
H   H62       1.0  0.22720  0.08890  0.55170  1.0000 0.1313257376
H   H63       1.0  0.92550  0.97720  0.63830  1.0000 0.1313257376
H   H64       1.0  0.53720  0.67550  0.44830  1.0000 0.1313257376
C   C1        1.0  0.31740  0.55170  0.84490  1.0000 0.5700023137
C   C2        1.0  0.72250  0.06740  0.26570  1.0000 0.5700023137
C   C3        1.0  0.70680  0.47250  0.15510  1.0000 0.5700023137
C   C4        1.0  0.80170  0.45680  0.73430  1.0000 0.5700023137
C   C5        1.0  0.93260  0.19830  0.65510  1.0000 0.5700023137
C   C6        1.0  0.52750  0.68260  0.23430  1.0000 0.5700023137
C   C7        1.0  0.54320  0.27750  0.34490  1.0000 0.5700023137
C   C8        1.0  0.44830  0.29320  0.76570  1.0000 0.5700023137
C   C9        1.0  0.32810  0.59980  0.92750  1.0000 -0.0553183556
C   C10       1.0  0.65060  0.07810  0.22830  1.0000 -0.0546227209
C   C11       1.0  0.67230  0.40060  0.07250  1.0000 -0.0553183556
C   C12       1.0  0.84980  0.42230  0.77170  1.0000 -0.0553183556
C   C13       1.0  0.92190  0.15020  0.57250  1.0000 -0.0546227209
C   C14       1.0  0.59940  0.67190  0.27170  1.0000 -0.0553183556
C   C15       1.0  0.57770  0.34940  0.42750  1.0000 -0.0553183556
C   C16       1.0  0.40020  0.32770  0.72830  1.0000 -0.0553183556
C   C17       1.0  0.41350  0.69050  0.99900  1.0000 0.0232939324
C   C18       1.0  0.66450  0.16350  0.22300  1.0000 0.0232939324
C   C19       1.0  0.69150  0.41450  0.00100  1.0000 0.0232939324
C   C20       1.0  0.94050  0.44150  0.77700  1.0000 0.0232939324
C   C21       1.0  0.83650  0.05950  0.50100  1.0000 0.0232939324
C   C22       1.0  0.58550  0.58650  0.27700  1.0000 0.0232939324
C   C23       1.0  0.55850  0.33550  0.49900  1.0000 0.0232939324
C   C24       1.0  0.30950  0.30850  0.72300  1.0000 0.0232939324
C   C25       1.0  0.52880  0.77910  0.01410  1.0000 0.5504167713
C   C26       1.0  0.76470  0.27880  0.24970  1.0000 0.5504167713
C   C27       1.0  0.76500  0.51470  0.98590  1.0000 0.5504167713
C   C28       1.0  0.02910  0.51500  0.75030  1.0000 0.5504167713
C   C29       1.0  0.72120  0.97090  0.48590  1.0000 0.5504167713
C   C30       1.0  0.48530  0.47120  0.25030  1.0000 0.5504167713
C   C31       1.0  0.48500  0.23530  0.51410  1.0000 0.5504167713
C   C32       1.0  0.22090  0.23500  0.74970  1.0000 0.5504167713
C   C33       1.0  0.27360  0.61250  0.02730  1.0000 0.3112394922
C   C34       1.0  0.49630  0.02360  0.16110  1.0000 0.3112394922
C   C35       1.0  0.58520  0.24630  0.97270  1.0000 0.3112394922
C   C36       1.0  0.86250  0.33520  0.83890  1.0000 0.3112394922
C   C37       1.0  0.97640  0.13750  0.47270  1.0000 0.3112394922
C   C38       1.0  0.75370  0.72640  0.33890  1.0000 0.3112394922
C   C39       1.0  0.66480  0.50370  0.52730  1.0000 0.3112394922
C   C40       1.0  0.38750  0.41480  0.66110  1.0000 0.3112394922
C   C41       1.0  0.19140  0.58840  0.06700  1.0000 0.0330516026
C   C42       1.0  0.37440  0.94140  0.10300  1.0000 0.0330516026
C   C43       1.0  0.52140  0.12440  0.93300  1.0000 0.0330516026
C   C44       1.0  0.83840  0.27140  0.89700  1.0000 0.0330516026
C   C45       1.0  0.05860  0.16160  0.43300  1.0000 0.0330516026
C   C46       1.0  0.87560  0.80860  0.39700  1.0000 0.0330516026
C   C47       1.0  0.72860  0.62560  0.56700  1.0000 0.0330516026
C   C48       1.0  0.41160  0.47860  0.60300  1.0000 0.0330516026
C   C49       1.0  0.20810  0.58180  0.14550  1.0000 -0.1505964184
C   C50       1.0  0.31260  0.95810  0.12630  1.0000 -0.1505964184
C   C51       1.0  0.43630  0.06260  0.85450  1.0000 -0.1505964184
C   C52       1.0  0.83180  0.18630  0.87370  1.0000 -0.1505964184
C   C53       1.0  0.04190  0.16820  0.35450  1.0000 -0.1505964184
C   C54       1.0  0.93740  0.79190  0.37370  1.0000 -0.1505964184
C   C55       1.0  0.81370  0.68740  0.64550  1.0000 -0.1505964184
C   C56       1.0  0.41820  0.56370  0.62630  1.0000 -0.1505964184
C   C57       1.0  0.14110  0.56660  0.18590  1.0000 -0.1394823752
C   C58       1.0  0.20520  0.89110  0.07450  1.0000 -0.1394823752
C   C59       1.0  0.38070  0.95520  0.81410  1.0000 -0.1394823752
C   C60       1.0  0.81660  0.13070  0.92550  1.0000 -0.1394823752
C   C61       1.0  0.10890  0.18340  0.31410  1.0000 -0.1394823752
C   C62       1.0  0.04480  0.85890  0.42550  1.0000 -0.1394823752
C   C63       1.0  0.86930  0.79480  0.68590  1.0000 -0.1394823752
C   C64       1.0  0.43340  0.61930  0.57450  1.0000 -0.1394823752
C   C65       1.0  0.05740  0.55800  0.14780  1.0000 0.1578734647
C   C66       1.0  0.15960  0.80740  0.99940  1.0000 0.1578734647
C   C67       1.0  0.41020  0.90960  0.85220  1.0000 0.1578734647
C   C68       1.0  0.80800  0.16020  0.00060  1.0000 0.1578734647
C   C69       1.0  0.19260  0.19200  0.35220  1.0000 0.1578734647
C   C70       1.0  0.09040  0.94260  0.50060  1.0000 0.1578734647
C   C71       1.0  0.83980  0.84040  0.64780  1.0000 0.1578734647
C   C72       1.0  0.44200  0.58980  0.49940  1.0000 0.1578734647
C   C73       1.0  0.04060  0.56450  0.06930  1.0000 -0.1505964184
C   C74       1.0  0.22130  0.79060  0.97610  1.0000 -0.1505964184
C   C75       1.0  0.49520  0.97130  0.93070  1.0000 -0.1505964184
C   C76       1.0  0.81450  0.24520  0.02390  1.0000 -0.1505964184
C   C77       1.0  0.20940  0.18550  0.43070  1.0000 -0.1505964184
C   C78       1.0  0.02870  0.95940  0.52390  1.0000 -0.1505964184
C   C79       1.0  0.75480  0.77870  0.56930  1.0000 -0.1505964184
C   C80       1.0  0.43550  0.50480  0.47610  1.0000 -0.1505964184
C   C81       1.0  0.10760  0.57970  0.02890  1.0000 -0.1394823752
C   C82       1.0  0.32870  0.85760  0.02790  1.0000 -0.1394823752
C   C83       1.0  0.55080  0.07870  0.97110  1.0000 -0.1394823752
C   C84       1.0  0.82970  0.30080  0.97210  1.0000 -0.1394823752
C   C85       1.0  0.14240  0.17030  0.47110  1.0000 -0.1394823752
C   C86       1.0  0.92130  0.89240  0.47210  1.0000 -0.1394823752
C   C87       1.0  0.69920  0.67130  0.52890  1.0000 -0.1394823752
C   C88       1.0  0.42030  0.44920  0.52790  1.0000 -0.1394823752
C   C89       1.0  0.97900  0.53100  0.17800  1.0000 -0.4355454818
C   C90       1.0  0.05100  0.72900  0.94800  1.0000 -0.4355454818
C   C91       1.0  0.35300  0.80100  0.82200  1.0000 -0.4355454818
C   C92       1.0  0.78100  0.10300  0.05200  1.0000 -0.4355454818
C   C93       1.0  0.27100  0.21900  0.32200  1.0000 -0.4355454818
C   C94       1.0  0.19900  0.02100  0.55200  1.0000 -0.4355454818
C   C95       1.0  0.89700  0.94900  0.67800  1.0000 -0.4355454818
C   C96       1.0  0.46900  0.64700  0.44800  1.0000 -0.4355454818
N   N1        1.0  0.23810  0.55110  0.94480  1.0000 -0.3756288402
N   N2        1.0  0.54330  0.98810  0.18700  1.0000 -0.3756288402
N   N3        1.0  0.60630  0.29330  0.05520  1.0000 -0.3756288402
N   N4        1.0  0.80110  0.35630  0.81300  1.0000 -0.3756288402
N   N5        1.0  0.01190  0.19890  0.55520  1.0000 -0.3756288402
N   N6        1.0  0.70670  0.76190  0.31300  1.0000 -0.3756288402
N   N7        1.0  0.64370  0.45670  0.44480  1.0000 -0.3756288402
N   N8        1.0  0.44890  0.39370  0.68700  1.0000 -0.3756288402
N   N9        1.0  0.37860  0.70060  0.06100  1.0000 -0.3982623927
N   N10       1.0  0.56760  0.12860  0.17800  1.0000 -0.3982623927
N   N11       1.0  0.63960  0.31760  0.93900  1.0000 -0.3982623927
N   N12       1.0  0.95060  0.38960  0.82200  1.0000 -0.3982623927
N   N13       1.0  0.87140  0.04940  0.43900  1.0000 -0.3982623927
N   N14       1.0  0.68240  0.62140  0.32200  1.0000 -0.3982623927
N   N15       1.0  0.61040  0.43240  0.56100  1.0000 -0.3982623927
N   N16       1.0  0.29940  0.36040  0.67800  1.0000 -0.3982623927
O   O1        1.0  0.23130  0.46250  0.79700  1.0000 -0.4847287424
O   O2        1.0  0.68430  0.98130  0.26880  1.0000 -0.4852913507
O   O3        1.0  0.66550  0.43430  0.20300  1.0000 -0.4852913507
O   O4        1.0  0.71250  0.41550  0.73120  1.0000 -0.4847287424
O   O5        1.0  0.01870  0.28750  0.70300  1.0000 -0.4847287424
O   O6        1.0  0.56570  0.76870  0.23120  1.0000 -0.4852913507
O   O7        1.0  0.58450  0.31570  0.29700  1.0000 -0.4847287424
O   O8        1.0  0.53750  0.33450  0.76880  1.0000 -0.4847287424
O   O9        1.0  0.39800  0.59840  0.82820  1.0000 -0.3673438467
O   O10       1.0  0.81980  0.14800  0.29960  1.0000 -0.3673438467
O   O11       1.0  0.77020  0.56980  0.17180  1.0000 -0.3673438467
O   O12       1.0  0.84840  0.52020  0.70040  1.0000 -0.3673438467
O   O13       1.0  0.85200  0.15160  0.67180  1.0000 -0.3673438467
O   O14       1.0  0.43020  0.60200  0.20040  1.0000 -0.3673438467
O   O15       1.0  0.47980  0.18020  0.32820  1.0000 -0.3673438467
O   O16       1.0  0.40160  0.22980  0.79960  1.0000 -0.3673438467
O   O17       1.0  0.55510  0.76670  0.95260  1.0000 -0.5622441434
O   O18       1.0  0.85250  0.30510  0.28840  1.0000 -0.5622441434
O   O19       1.0  0.81410  0.60250  0.04740  1.0000 -0.5622441434
O   O20       1.0  0.01670  0.56410  0.71160  1.0000 -0.5622441434
O   O21       1.0  0.69490  0.98330  0.54740  1.0000 -0.5622441434
O   O22       1.0  0.39750  0.44490  0.21160  1.0000 -0.5622441434
O   O23       1.0  0.43590  0.14750  0.45260  1.0000 -0.5622441434
O   O24       1.0  0.23330  0.18590  0.78840  1.0000 -0.5622441434
O   O25       1.0  0.58800  0.85240  0.08340  1.0000 -0.5112708695
O   O26       1.0  0.75460  0.33800  0.23560  1.0000 -0.5112708695
O   O27       1.0  0.76900  0.50460  0.91660  1.0000 -0.5112708695
O   O28       1.0  0.10240  0.51900  0.76440  1.0000 -0.5112708695
O   O29       1.0  0.66200  0.89760  0.41660  1.0000 -0.5112708695
O   O30       1.0  0.49540  0.41200  0.26440  1.0000 -0.5112708695
O   O31       1.0  0.48100  0.24540  0.58340  1.0000 -0.5112708695
O   O32       1.0  0.14760  0.23100  0.73560  1.0000 -0.5112708695
