# DDEC6 charges by PACMAN v1.1 (https://github.com/mtap-research/PACMAN-charge/)
data_2010[Cd][nuc]3[ASR]2
_chemical_formula_sum              "Cd4 H144 C192 N48"
_cell_length_a       15.8773
_cell_length_b       15.8773
_cell_length_c       21.684
_cell_angle_alpha    90
_cell_angle_beta     90
_cell_angle_gamma    90

_symmetry_space_group_name_H-M    "P 1"
_symmetry_Int_Tables_number       1

loop_
  _symmetry_equiv_pos_as_xyz
  'x, y, z'

loop_
  _atom_site_type_symbol
  _atom_site_label
  _atom_site_symmetry_multiplicity
  _atom_site_fract_x
  _atom_site_fract_y
  _atom_site_fract_z
  _atom_site_occupancy
  _atom_site_charge
Cd  Cd1       1.0  0.05796  0.94204  0.25000  1.0000 0.6429909724
Cd  Cd2       1.0  0.94204  0.05796  0.75000  1.0000 0.6429909724
Cd  Cd3       1.0  0.55796  0.55796  0.50000  1.0000 0.6429909724
Cd  Cd4       1.0  0.44204  0.44204  0.00000  1.0000 0.6429909724
H   H1        1.0  0.53790  0.61000  0.34760  1.0000 0.0995819602
H   H2        1.0  0.46210  0.39000  0.84760  1.0000 0.0995819602
H   H3        1.0  0.89000  0.03790  0.59760  1.0000 0.0995819602
H   H4        1.0  0.11000  0.96210  0.09760  1.0000 0.0995819602
H   H5        1.0  0.96210  0.11000  0.90240  1.0000 0.0995819602
H   H6        1.0  0.03790  0.89000  0.40240  1.0000 0.0995819602
H   H7        1.0  0.61000  0.53790  0.65240  1.0000 0.0995819602
H   H8        1.0  0.39000  0.46210  0.15240  1.0000 0.0995819602
H   H9        1.0  0.58500  0.71580  0.28540  1.0000 0.1271018866
H   H10       1.0  0.41500  0.28420  0.78540  1.0000 0.1271018866
H   H11       1.0  0.78420  0.08500  0.53540  1.0000 0.1271018866
H   H12       1.0  0.21580  0.91500  0.03540  1.0000 0.1271018866
H   H13       1.0  0.91500  0.21580  0.96460  1.0000 0.1271018866
H   H14       1.0  0.08500  0.78420  0.46460  1.0000 0.1271018866
H   H15       1.0  0.71580  0.58500  0.71460  1.0000 0.1271018866
H   H16       1.0  0.28420  0.41500  0.21460  1.0000 0.1271018866
H   H17       1.0  0.78610  0.74080  0.39490  1.0000 0.1271018866
H   H18       1.0  0.21390  0.25920  0.89490  1.0000 0.1271018866
H   H19       1.0  0.75920  0.28610  0.64490  1.0000 0.1271018866
H   H20       1.0  0.24080  0.71390  0.14490  1.0000 0.1271018866
H   H21       1.0  0.71390  0.24080  0.85510  1.0000 0.1271018866
H   H22       1.0  0.28610  0.75920  0.35510  1.0000 0.1271018866
H   H23       1.0  0.74080  0.78610  0.60510  1.0000 0.1271018866
H   H24       1.0  0.25920  0.21390  0.10510  1.0000 0.1271018866
H   H25       1.0  0.72740  0.64230  0.46060  1.0000 0.0911197024
H   H26       1.0  0.27260  0.35770  0.96060  1.0000 0.0911197024
H   H27       1.0  0.85770  0.22740  0.71060  1.0000 0.0911197024
H   H28       1.0  0.14230  0.77260  0.21060  1.0000 0.0911197024
H   H29       1.0  0.77260  0.14230  0.78940  1.0000 0.0911197024
H   H30       1.0  0.22740  0.85770  0.28940  1.0000 0.0911197024
H   H31       1.0  0.64230  0.72740  0.53940  1.0000 0.0911197024
H   H32       1.0  0.35770  0.27260  0.03940  1.0000 0.0911197024
H   H33       1.0  0.65170  0.79750  0.22010  1.0000 0.0911197024
H   H34       1.0  0.34830  0.20250  0.72010  1.0000 0.0911197024
H   H35       1.0  0.70250  0.15170  0.47010  1.0000 0.0911197024
H   H36       1.0  0.29750  0.84830  0.97010  1.0000 0.0911197024
H   H37       1.0  0.84830  0.29750  0.02990  1.0000 0.0911197024
H   H38       1.0  0.15170  0.70250  0.52990  1.0000 0.0911197024
H   H39       1.0  0.79750  0.65170  0.77990  1.0000 0.0911197024
H   H40       1.0  0.20250  0.34830  0.27990  1.0000 0.0911197024
H   H41       1.0  0.70520  0.90740  0.16340  1.0000 0.1095373803
H   H42       1.0  0.29480  0.09260  0.66340  1.0000 0.1095373803
H   H43       1.0  0.59260  0.20520  0.41340  1.0000 0.1095373803
H   H44       1.0  0.40740  0.79480  0.91340  1.0000 0.1095373803
H   H45       1.0  0.79480  0.40740  0.08660  1.0000 0.1095373803
H   H46       1.0  0.20520  0.59260  0.58660  1.0000 0.1095373803
H   H47       1.0  0.90740  0.70520  0.83660  1.0000 0.1095373803
H   H48       1.0  0.09260  0.29480  0.33660  1.0000 0.1095373803
H   H49       1.0  0.80310  0.00210  0.20790  1.0000 0.1095373803
H   H50       1.0  0.19690  0.99790  0.70790  1.0000 0.1095373803
H   H51       1.0  0.49790  0.30310  0.45790  1.0000 0.1095373803
H   H52       1.0  0.50210  0.69690  0.95790  1.0000 0.1095373803
H   H53       1.0  0.69690  0.50210  0.04210  1.0000 0.1095373803
H   H54       1.0  0.30310  0.49790  0.54210  1.0000 0.1095373803
H   H55       1.0  0.00210  0.80310  0.79210  1.0000 0.1095373803
H   H56       1.0  0.99790  0.19690  0.29210  1.0000 0.1095373803
H   H57       1.0  0.79850  0.86550  0.36440  1.0000 0.1095373803
H   H58       1.0  0.20150  0.13450  0.86440  1.0000 0.1095373803
H   H59       1.0  0.63450  0.29850  0.61440  1.0000 0.1095373803
H   H60       1.0  0.36550  0.70150  0.11440  1.0000 0.1095373803
H   H61       1.0  0.70150  0.36550  0.88560  1.0000 0.1095373803
H   H62       1.0  0.29850  0.63450  0.38560  1.0000 0.1095373803
H   H63       1.0  0.86550  0.79850  0.63560  1.0000 0.1095373803
H   H64       1.0  0.13450  0.20150  0.13560  1.0000 0.1095373803
H   H65       1.0  0.04730  0.12170  0.46060  1.0000 0.1095373803
H   H66       1.0  0.95270  0.87830  0.96060  1.0000 0.1095373803
H   H67       1.0  0.37830  0.54730  0.71060  1.0000 0.1095373803
H   H68       1.0  0.62170  0.45270  0.21060  1.0000 0.1095373803
H   H69       1.0  0.45270  0.62170  0.78940  1.0000 0.1095373803
H   H70       1.0  0.54730  0.37830  0.28940  1.0000 0.1095373803
H   H71       1.0  0.12170  0.04730  0.53940  1.0000 0.1095373803
H   H72       1.0  0.87830  0.95270  0.03940  1.0000 0.1095373803
H   H73       1.0  0.06510  0.23080  0.52900  1.0000 0.1095373803
H   H74       1.0  0.93490  0.76920  0.02900  1.0000 0.1095373803
H   H75       1.0  0.26920  0.56510  0.77900  1.0000 0.1095373803
H   H76       1.0  0.73080  0.43490  0.27900  1.0000 0.1095373803
H   H77       1.0  0.43490  0.73080  0.72100  1.0000 0.1095373803
H   H78       1.0  0.56510  0.26920  0.22100  1.0000 0.1095373803
H   H79       1.0  0.23080  0.06510  0.47100  1.0000 0.1095373803
H   H80       1.0  0.76920  0.93490  0.97100  1.0000 0.1095373803
H   H81       1.0  0.96220  0.33400  0.54130  1.0000 0.1095373803
H   H82       1.0  0.03780  0.66600  0.04130  1.0000 0.1095373803
H   H83       1.0  0.16600  0.46220  0.79130  1.0000 0.1095373803
H   H84       1.0  0.83400  0.53780  0.29130  1.0000 0.1095373803
H   H85       1.0  0.53780  0.83400  0.70870  1.0000 0.1095373803
H   H86       1.0  0.46220  0.16600  0.20870  1.0000 0.1095373803
H   H87       1.0  0.33400  0.96220  0.45870  1.0000 0.1095373803
H   H88       1.0  0.66600  0.03780  0.95870  1.0000 0.1095373803
H   H89       1.0  0.82550  0.22480  0.40490  1.0000 0.1095373803
H   H90       1.0  0.17450  0.77520  0.90490  1.0000 0.1095373803
H   H91       1.0  0.27520  0.32550  0.65490  1.0000 0.1095373803
H   H92       1.0  0.72480  0.67450  0.15490  1.0000 0.1095373803
H   H93       1.0  0.67450  0.72480  0.84510  1.0000 0.1095373803
H   H94       1.0  0.32550  0.27520  0.34510  1.0000 0.1095373803
H   H95       1.0  0.22480  0.82550  0.59510  1.0000 0.1095373803
H   H96       1.0  0.77520  0.17450  0.09510  1.0000 0.1095373803
H   H97       1.0  0.76910  0.34840  0.39170  1.0000 0.1271018866
H   H98       1.0  0.23090  0.65160  0.89170  1.0000 0.1271018866
H   H99       1.0  0.15160  0.26910  0.64170  1.0000 0.1271018866
H   H100      1.0  0.84840  0.73090  0.14170  1.0000 0.1271018866
H   H101      1.0  0.73090  0.84840  0.85830  1.0000 0.1271018866
H   H102      1.0  0.26910  0.15160  0.35830  1.0000 0.1271018866
H   H103      1.0  0.34840  0.76910  0.60830  1.0000 0.1271018866
H   H104      1.0  0.65160  0.23090  0.10830  1.0000 0.1271018866
H   H105      1.0  0.66110  0.44550  0.40680  1.0000 0.0995819602
H   H106      1.0  0.33890  0.55450  0.90680  1.0000 0.0995819602
H   H107      1.0  0.05450  0.16110  0.65680  1.0000 0.0995819602
H   H108      1.0  0.94550  0.83890  0.15680  1.0000 0.0995819602
H   H109      1.0  0.83890  0.94550  0.84320  1.0000 0.0995819602
H   H110      1.0  0.16110  0.05450  0.34320  1.0000 0.0995819602
H   H111      1.0  0.44550  0.66110  0.59320  1.0000 0.0995819602
H   H112      1.0  0.55450  0.33890  0.09320  1.0000 0.0995819602
H   H113      1.0  0.73370  0.48890  0.57600  1.0000 0.0911197024
H   H114      1.0  0.26630  0.51110  0.07600  1.0000 0.0911197024
H   H115      1.0  0.01110  0.23370  0.82600  1.0000 0.0911197024
H   H116      1.0  0.98890  0.76630  0.32600  1.0000 0.0911197024
H   H117      1.0  0.76630  0.98890  0.67400  1.0000 0.0911197024
H   H118      1.0  0.23370  0.01110  0.17400  1.0000 0.0911197024
H   H119      1.0  0.48890  0.73370  0.42400  1.0000 0.0911197024
H   H120      1.0  0.51110  0.26630  0.92400  1.0000 0.0911197024
H   H121      1.0  0.84440  0.39390  0.56620  1.0000 0.1230180594
H   H122      1.0  0.15560  0.60610  0.06620  1.0000 0.1230180594
H   H123      1.0  0.10610  0.34440  0.81620  1.0000 0.1230180594
H   H124      1.0  0.89390  0.65560  0.31620  1.0000 0.1230180594
H   H125      1.0  0.65560  0.89390  0.68380  1.0000 0.1230180594
H   H126      1.0  0.34440  0.10610  0.18380  1.0000 0.1230180594
H   H127      1.0  0.39390  0.84440  0.43380  1.0000 0.1230180594
H   H128      1.0  0.60610  0.15560  0.93380  1.0000 0.1230180594
H   H129      1.0  0.74920  0.03100  0.40550  1.0000 0.2529224413
H   H130      1.0  0.25080  0.96900  0.90550  1.0000 0.2529224413
H   H131      1.0  0.46900  0.24920  0.65550  1.0000 0.2529224413
H   H132      1.0  0.53100  0.75080  0.15550  1.0000 0.2529224413
H   H133      1.0  0.75080  0.53100  0.84450  1.0000 0.2529224413
H   H134      1.0  0.24920  0.46900  0.34450  1.0000 0.2529224413
H   H135      1.0  0.03100  0.74920  0.59450  1.0000 0.2529224413
H   H136      1.0  0.96900  0.25080  0.09450  1.0000 0.2529224413
H   H137      1.0  0.73500  0.08420  0.34990  1.0000 0.2563110846
H   H138      1.0  0.26500  0.91580  0.84990  1.0000 0.2563110846
H   H139      1.0  0.41580  0.23500  0.59990  1.0000 0.2563110846
H   H140      1.0  0.58420  0.76500  0.09990  1.0000 0.2563110846
H   H141      1.0  0.76500  0.58420  0.90010  1.0000 0.2563110846
H   H142      1.0  0.23500  0.41580  0.40010  1.0000 0.2563110846
H   H143      1.0  0.08420  0.73500  0.65010  1.0000 0.2563110846
H   H144      1.0  0.91580  0.26500  0.15010  1.0000 0.2563110846
C   C1        1.0  0.58680  0.64050  0.35950  1.0000 0.0599016701
C   C2        1.0  0.41320  0.35950  0.85950  1.0000 0.0599016701
C   C3        1.0  0.85950  0.08680  0.60950  1.0000 0.0599016701
C   C4        1.0  0.14050  0.91320  0.10950  1.0000 0.0599016701
C   C5        1.0  0.91320  0.14050  0.89050  1.0000 0.0599016701
C   C6        1.0  0.08680  0.85950  0.39050  1.0000 0.0599016701
C   C7        1.0  0.64050  0.58680  0.64050  1.0000 0.0599016701
C   C8        1.0  0.35950  0.41320  0.14050  1.0000 0.0599016701
C   C9        1.0  0.61560  0.70230  0.32170  1.0000 -0.2196965837
C   C10       1.0  0.38440  0.29770  0.82170  1.0000 -0.2196965837
C   C11       1.0  0.79770  0.11560  0.57170  1.0000 -0.2196965837
C   C12       1.0  0.20230  0.88440  0.07170  1.0000 -0.2196965837
C   C13       1.0  0.88440  0.20230  0.92830  1.0000 -0.2196965837
C   C14       1.0  0.11560  0.79770  0.42830  1.0000 -0.2196965837
C   C15       1.0  0.70230  0.61560  0.67830  1.0000 -0.2196965837
C   C16       1.0  0.29770  0.38440  0.17830  1.0000 -0.2196965837
C   C17       1.0  0.68970  0.74670  0.33540  1.0000 0.1095373803
C   C18       1.0  0.31030  0.25330  0.83540  1.0000 0.1095373803
C   C19       1.0  0.75330  0.18970  0.58540  1.0000 0.1095373803
C   C20       1.0  0.24670  0.81030  0.08540  1.0000 0.1095373803
C   C21       1.0  0.81030  0.24670  0.91460  1.0000 0.1095373803
C   C22       1.0  0.18970  0.75330  0.41460  1.0000 0.1095373803
C   C23       1.0  0.74670  0.68970  0.66460  1.0000 0.1095373803
C   C24       1.0  0.25330  0.31030  0.16460  1.0000 0.1095373803
C   C25       1.0  0.73200  0.71850  0.38590  1.0000 -0.2102516683
C   C26       1.0  0.26800  0.28150  0.88590  1.0000 -0.2102516683
C   C27       1.0  0.78150  0.23200  0.63590  1.0000 -0.2102516683
C   C28       1.0  0.21850  0.76800  0.13590  1.0000 -0.2102516683
C   C29       1.0  0.76800  0.21850  0.86410  1.0000 -0.2102516683
C   C30       1.0  0.23200  0.78150  0.36410  1.0000 -0.2102516683
C   C31       1.0  0.71850  0.73200  0.61410  1.0000 -0.2102516683
C   C32       1.0  0.28150  0.26800  0.11410  1.0000 -0.2102516683
C   C33       1.0  0.69760  0.65800  0.42440  1.0000 0.0371209551
C   C34       1.0  0.30240  0.34200  0.92440  1.0000 0.0371209551
C   C35       1.0  0.84200  0.19760  0.67440  1.0000 0.0371209551
C   C36       1.0  0.15800  0.80240  0.17440  1.0000 0.0371209551
C   C37       1.0  0.80240  0.15800  0.82560  1.0000 0.0371209551
C   C38       1.0  0.19760  0.84200  0.32560  1.0000 0.0371209551
C   C39       1.0  0.65800  0.69760  0.57560  1.0000 0.0371209551
C   C40       1.0  0.34200  0.30240  0.07560  1.0000 0.0371209551
C   C41       1.0  0.72060  0.81820  0.29860  1.0000 0.0711123147
C   C42       1.0  0.27940  0.18180  0.79860  1.0000 0.0711123147
C   C43       1.0  0.68180  0.22060  0.54860  1.0000 0.0711123147
C   C44       1.0  0.31820  0.77940  0.04860  1.0000 0.0711123147
C   C45       1.0  0.77940  0.31820  0.95140  1.0000 0.0711123147
C   C46       1.0  0.22060  0.68180  0.45140  1.0000 0.0711123147
C   C47       1.0  0.81820  0.72060  0.70140  1.0000 0.0711123147
C   C48       1.0  0.18180  0.27940  0.20140  1.0000 0.0711123147
C   C49       1.0  0.69270  0.83350  0.23790  1.0000 -0.1672645514
C   C50       1.0  0.30730  0.16650  0.73790  1.0000 -0.1672645514
C   C51       1.0  0.66650  0.19270  0.48790  1.0000 -0.1672645514
C   C52       1.0  0.33350  0.80730  0.98790  1.0000 -0.1672645514
C   C53       1.0  0.80730  0.33350  0.01210  1.0000 -0.1672645514
C   C54       1.0  0.19270  0.66650  0.51210  1.0000 -0.1672645514
C   C55       1.0  0.83350  0.69270  0.76210  1.0000 -0.1672645514
C   C56       1.0  0.16650  0.30730  0.26210  1.0000 -0.1672645514
C   C57       1.0  0.72360  0.89920  0.20460  1.0000 -0.1060961676
C   C58       1.0  0.27640  0.10080  0.70460  1.0000 -0.1060961676
C   C59       1.0  0.60080  0.22360  0.45460  1.0000 -0.1060961676
C   C60       1.0  0.39920  0.77640  0.95460  1.0000 -0.1060961676
C   C61       1.0  0.77640  0.39920  0.04540  1.0000 -0.1060961676
C   C62       1.0  0.22360  0.60080  0.54540  1.0000 -0.1060961676
C   C63       1.0  0.89920  0.72360  0.79540  1.0000 -0.1060961676
C   C64       1.0  0.10080  0.27640  0.29540  1.0000 -0.1060961676
C   C65       1.0  0.78280  0.95530  0.23080  1.0000 -0.1672645514
C   C66       1.0  0.21720  0.04470  0.73080  1.0000 -0.1672645514
C   C67       1.0  0.54470  0.28280  0.48080  1.0000 -0.1672645514
C   C68       1.0  0.45530  0.71720  0.98080  1.0000 -0.1672645514
C   C69       1.0  0.71720  0.45530  0.01920  1.0000 -0.1672645514
C   C70       1.0  0.28280  0.54470  0.51920  1.0000 -0.1672645514
C   C71       1.0  0.95530  0.78280  0.76920  1.0000 -0.1672645514
C   C72       1.0  0.04470  0.21720  0.26920  1.0000 -0.1672645514
C   C73       1.0  0.81080  0.94060  0.29090  1.0000 0.02076037
C   C74       1.0  0.18920  0.05940  0.79090  1.0000 0.02076037
C   C75       1.0  0.55940  0.31080  0.54090  1.0000 0.02076037
C   C76       1.0  0.44060  0.68920  0.04090  1.0000 0.02076037
C   C77       1.0  0.68920  0.44060  0.95910  1.0000 0.02076037
C   C78       1.0  0.31080  0.55940  0.45910  1.0000 0.02076037
C   C79       1.0  0.94060  0.81080  0.70910  1.0000 0.02076037
C   C80       1.0  0.05940  0.18920  0.20910  1.0000 0.02076037
C   C81       1.0  0.77950  0.87420  0.32330  1.0000 -0.202370726
C   C82       1.0  0.22050  0.12580  0.82330  1.0000 -0.202370726
C   C83       1.0  0.62580  0.27950  0.57330  1.0000 -0.202370726
C   C84       1.0  0.37420  0.72050  0.07330  1.0000 -0.202370726
C   C85       1.0  0.72050  0.37420  0.92670  1.0000 -0.202370726
C   C86       1.0  0.27950  0.62580  0.42670  1.0000 -0.202370726
C   C87       1.0  0.87420  0.77950  0.67670  1.0000 -0.202370726
C   C88       1.0  0.12580  0.22050  0.17670  1.0000 -0.202370726
C   C89       1.0  0.87330  0.99650  0.32020  1.0000 0.1747732716
C   C90       1.0  0.12670  0.00350  0.82020  1.0000 0.1747732716
C   C91       1.0  0.50350  0.37330  0.57020  1.0000 0.1747732716
C   C92       1.0  0.49650  0.62670  0.07020  1.0000 0.1747732716
C   C93       1.0  0.62670  0.49650  0.92980  1.0000 0.1747732716
C   C94       1.0  0.37330  0.50350  0.42980  1.0000 0.1747732716
C   C95       1.0  0.99650  0.87330  0.67980  1.0000 0.1747732716
C   C96       1.0  0.00350  0.12670  0.17980  1.0000 0.1747732716
C   C97       1.0  0.92500  0.09190  0.38260  1.0000 0.178047921
C   C98       1.0  0.07500  0.90810  0.88260  1.0000 0.178047921
C   C99       1.0  0.40810  0.42500  0.63260  1.0000 0.178047921
C   C100      1.0  0.59190  0.57500  0.13260  1.0000 0.178047921
C   C101      1.0  0.57500  0.59190  0.86740  1.0000 0.178047921
C   C102      1.0  0.42500  0.40810  0.36740  1.0000 0.178047921
C   C103      1.0  0.09190  0.92500  0.61740  1.0000 0.178047921
C   C104      1.0  0.90810  0.07500  0.11740  1.0000 0.178047921
C   C105      1.0  0.93250  0.16120  0.42700  1.0000 0.0371209551
C   C106      1.0  0.06750  0.83880  0.92700  1.0000 0.0371209551
C   C107      1.0  0.33880  0.43250  0.67700  1.0000 0.0371209551
C   C108      1.0  0.66120  0.56750  0.17700  1.0000 0.0371209551
C   C109      1.0  0.56750  0.66120  0.82300  1.0000 0.0371209551
C   C110      1.0  0.43250  0.33880  0.32300  1.0000 0.0371209551
C   C111      1.0  0.16120  0.93250  0.57300  1.0000 0.0371209551
C   C112      1.0  0.83880  0.06750  0.07300  1.0000 0.0371209551
C   C113      1.0  0.00550  0.16430  0.46400  1.0000 -0.1672645514
C   C114      1.0  0.99450  0.83570  0.96400  1.0000 -0.1672645514
C   C115      1.0  0.33570  0.50550  0.71400  1.0000 -0.1672645514
C   C116      1.0  0.66430  0.49450  0.21400  1.0000 -0.1672645514
C   C117      1.0  0.49450  0.66430  0.78600  1.0000 -0.1672645514
C   C118      1.0  0.50550  0.33570  0.28600  1.0000 -0.1672645514
C   C119      1.0  0.16430  0.00550  0.53600  1.0000 -0.1672645514
C   C120      1.0  0.83570  0.99450  0.03600  1.0000 -0.1672645514
C   C121      1.0  0.01560  0.22850  0.50450  1.0000 -0.1042382833
C   C122      1.0  0.98440  0.77150  0.00450  1.0000 -0.1042382833
C   C123      1.0  0.27150  0.51560  0.75450  1.0000 -0.1042382833
C   C124      1.0  0.72850  0.48440  0.25450  1.0000 -0.1042382833
C   C125      1.0  0.48440  0.72850  0.74550  1.0000 -0.1042382833
C   C126      1.0  0.51560  0.27150  0.24550  1.0000 -0.1042382833
C   C127      1.0  0.22850  0.01560  0.49550  1.0000 -0.1042382833
C   C128      1.0  0.77150  0.98440  0.99550  1.0000 -0.1042382833
C   C129      1.0  0.95500  0.29120  0.51110  1.0000 -0.1672645514
C   C130      1.0  0.04500  0.70880  0.01110  1.0000 -0.1672645514
C   C131      1.0  0.20880  0.45500  0.76110  1.0000 -0.1672645514
C   C132      1.0  0.79120  0.54500  0.26110  1.0000 -0.1672645514
C   C133      1.0  0.54500  0.79120  0.73890  1.0000 -0.1672645514
C   C134      1.0  0.45500  0.20880  0.23890  1.0000 -0.1672645514
C   C135      1.0  0.29120  0.95500  0.48890  1.0000 -0.1672645514
C   C136      1.0  0.70880  0.04500  0.98890  1.0000 -0.1672645514
C   C137      1.0  0.88440  0.29150  0.47370  1.0000 0.0711123147
C   C138      1.0  0.11560  0.70850  0.97370  1.0000 0.0711123147
C   C139      1.0  0.20850  0.38440  0.72370  1.0000 0.0711123147
C   C140      1.0  0.79150  0.61560  0.22370  1.0000 0.0711123147
C   C141      1.0  0.61560  0.79150  0.77630  1.0000 0.0711123147
C   C142      1.0  0.38440  0.20850  0.27630  1.0000 0.0711123147
C   C143      1.0  0.29150  0.88440  0.52630  1.0000 0.0711123147
C   C144      1.0  0.70850  0.11560  0.02630  1.0000 0.0711123147
C   C145      1.0  0.87350  0.22540  0.43100  1.0000 -0.202370726
C   C146      1.0  0.12650  0.77460  0.93100  1.0000 -0.202370726
C   C147      1.0  0.27460  0.37350  0.68100  1.0000 -0.202370726
C   C148      1.0  0.72540  0.62650  0.18100  1.0000 -0.202370726
C   C149      1.0  0.62650  0.72540  0.81900  1.0000 -0.202370726
C   C150      1.0  0.37350  0.27460  0.31900  1.0000 -0.202370726
C   C151      1.0  0.22540  0.87350  0.56900  1.0000 -0.202370726
C   C152      1.0  0.77460  0.12650  0.06900  1.0000 -0.202370726
C   C153      1.0  0.81910  0.35750  0.47840  1.0000 0.1095373803
C   C154      1.0  0.18090  0.64250  0.97840  1.0000 0.1095373803
C   C155      1.0  0.14250  0.31910  0.72840  1.0000 0.1095373803
C   C156      1.0  0.85750  0.68090  0.22840  1.0000 0.1095373803
C   C157      1.0  0.68090  0.85750  0.77160  1.0000 0.1095373803
C   C158      1.0  0.31910  0.14250  0.27160  1.0000 0.1095373803
C   C159      1.0  0.35750  0.81910  0.52160  1.0000 0.1095373803
C   C160      1.0  0.64250  0.18090  0.02160  1.0000 0.1095373803
C   C161      1.0  0.76330  0.37560  0.43050  1.0000 -0.2102516683
C   C162      1.0  0.23670  0.62440  0.93050  1.0000 -0.2102516683
C   C163      1.0  0.12440  0.26330  0.68050  1.0000 -0.2102516683
C   C164      1.0  0.87560  0.73670  0.18050  1.0000 -0.2102516683
C   C165      1.0  0.73670  0.87560  0.81950  1.0000 -0.2102516683
C   C166      1.0  0.26330  0.12440  0.31950  1.0000 -0.2102516683
C   C167      1.0  0.37560  0.76330  0.56950  1.0000 -0.2102516683
C   C168      1.0  0.62440  0.23670  0.06950  1.0000 -0.2102516683
C   C169      1.0  0.69850  0.43440  0.44000  1.0000 0.0711123147
C   C170      1.0  0.30150  0.56560  0.94000  1.0000 0.0711123147
C   C171      1.0  0.06560  0.19850  0.69000  1.0000 0.0711123147
C   C172      1.0  0.93440  0.80150  0.19000  1.0000 0.0711123147
C   C173      1.0  0.80150  0.93440  0.81000  1.0000 0.0711123147
C   C174      1.0  0.19850  0.06560  0.31000  1.0000 0.0711123147
C   C175      1.0  0.43440  0.69850  0.56000  1.0000 0.0711123147
C   C176      1.0  0.56560  0.30150  0.06000  1.0000 0.0711123147
C   C177      1.0  0.74050  0.45980  0.53800  1.0000 0.0599016701
C   C178      1.0  0.25950  0.54020  0.03800  1.0000 0.0599016701
C   C179      1.0  0.04020  0.24050  0.78800  1.0000 0.0599016701
C   C180      1.0  0.95980  0.75950  0.28800  1.0000 0.0599016701
C   C181      1.0  0.75950  0.95980  0.71200  1.0000 0.0599016701
C   C182      1.0  0.24050  0.04020  0.21200  1.0000 0.0599016701
C   C183      1.0  0.45980  0.74050  0.46200  1.0000 0.0599016701
C   C184      1.0  0.54020  0.25950  0.96200  1.0000 0.0599016701
C   C185      1.0  0.80710  0.40230  0.53250  1.0000 -0.2102516683
C   C186      1.0  0.19290  0.59770  0.03250  1.0000 -0.2102516683
C   C187      1.0  0.09770  0.30710  0.78250  1.0000 -0.2102516683
C   C188      1.0  0.90230  0.69290  0.28250  1.0000 -0.2102516683
C   C189      1.0  0.69290  0.90230  0.71750  1.0000 -0.2102516683
C   C190      1.0  0.30710  0.09770  0.21750  1.0000 -0.2102516683
C   C191      1.0  0.40230  0.80710  0.46750  1.0000 -0.2102516683
C   C192      1.0  0.59770  0.19290  0.96750  1.0000 -0.2102516683
N   N1        1.0  0.62400  0.62080  0.41230  1.0000 -0.2196965837
N   N2        1.0  0.37600  0.37920  0.91230  1.0000 -0.2196965837
N   N3        1.0  0.87920  0.12400  0.66230  1.0000 -0.2196965837
N   N4        1.0  0.12080  0.87600  0.16230  1.0000 -0.2196965837
N   N5        1.0  0.87600  0.12080  0.83770  1.0000 -0.2196965837
N   N6        1.0  0.12400  0.87920  0.33770  1.0000 -0.2196965837
N   N7        1.0  0.62080  0.62400  0.58770  1.0000 -0.2196965837
N   N8        1.0  0.37920  0.37600  0.08770  1.0000 -0.2196965837
N   N9        1.0  0.95540  0.99410  0.31550  1.0000 -0.2394727715
N   N10       1.0  0.04460  0.00590  0.81550  1.0000 -0.2394727715
N   N11       1.0  0.50590  0.45540  0.56550  1.0000 -0.2394727715
N   N12       1.0  0.49410  0.54460  0.06550  1.0000 -0.2394727715
N   N13       1.0  0.54460  0.49410  0.93450  1.0000 -0.2394727715
N   N14       1.0  0.45540  0.50590  0.43450  1.0000 -0.2394727715
N   N15       1.0  0.99410  0.95540  0.68450  1.0000 -0.2394727715
N   N16       1.0  0.00590  0.04460  0.18450  1.0000 -0.2394727715
N   N17       1.0  0.98820  0.05460  0.35560  1.0000 -0.2865970847
N   N18       1.0  0.01180  0.94540  0.85560  1.0000 -0.2865970847
N   N19       1.0  0.44540  0.48820  0.60560  1.0000 -0.2865970847
N   N20       1.0  0.55460  0.51180  0.10560  1.0000 -0.2865970847
N   N21       1.0  0.51180  0.55460  0.89440  1.0000 -0.2865970847
N   N22       1.0  0.48820  0.44540  0.39440  1.0000 -0.2865970847
N   N23       1.0  0.05460  0.98820  0.64440  1.0000 -0.2865970847
N   N24       1.0  0.94540  0.01180  0.14440  1.0000 -0.2865970847
N   N25       1.0  0.85060  0.05670  0.36180  1.0000 0.0599016701
N   N26       1.0  0.14940  0.94330  0.86180  1.0000 0.0599016701
N   N27       1.0  0.44330  0.35060  0.61180  1.0000 0.0599016701
N   N28       1.0  0.55670  0.64940  0.11180  1.0000 0.0599016701
N   N29       1.0  0.64940  0.55670  0.88820  1.0000 0.0599016701
N   N30       1.0  0.35060  0.44330  0.38820  1.0000 0.0599016701
N   N31       1.0  0.05670  0.85060  0.63820  1.0000 0.0599016701
N   N32       1.0  0.94330  0.14940  0.13820  1.0000 0.0599016701
N   N33       1.0  0.76930  0.07520  0.38300  1.0000 -0.5144527
N   N34       1.0  0.23070  0.92480  0.88300  1.0000 -0.5144527
N   N35       1.0  0.42480  0.26930  0.63300  1.0000 -0.5144527
N   N36       1.0  0.57520  0.73070  0.13300  1.0000 -0.5144527
N   N37       1.0  0.73070  0.57520  0.86700  1.0000 -0.5144527
N   N38       1.0  0.26930  0.42480  0.36700  1.0000 -0.5144527
N   N39       1.0  0.07520  0.76930  0.61700  1.0000 -0.5144527
N   N40       1.0  0.92480  0.23070  0.11700  1.0000 -0.5144527
N   N41       1.0  0.68640  0.47530  0.49260  1.0000 -0.2394727715
N   N42       1.0  0.31360  0.52470  0.99260  1.0000 -0.2394727715
N   N43       1.0  0.02470  0.18640  0.74260  1.0000 -0.2394727715
N   N44       1.0  0.97530  0.81360  0.24260  1.0000 -0.2394727715
N   N45       1.0  0.81360  0.97530  0.75740  1.0000 -0.2394727715
N   N46       1.0  0.18640  0.02470  0.25740  1.0000 -0.2394727715
N   N47       1.0  0.47530  0.68640  0.50740  1.0000 -0.2394727715
N   N48       1.0  0.52470  0.31360  0.00740  1.0000 -0.2394727715
