# DDEC6 charges by PACMAN v1.1 (https://github.com/mtap-research/PACMAN-charge/)
data_OPIWEQ_ASR_pacman
_symmetry_space_group_name_H-M   'P 1'
_cell_length_a   6.94330000
_cell_length_b   7.73020000
_cell_length_c   22.19230000
_cell_angle_alpha   90.00000000
_cell_angle_beta   90.00000000
_cell_angle_gamma   90.00000000
_symmetry_Int_Tables_number   1
_chemical_formula_structural   CoH13C12N3O4
_chemical_formula_sum   'Co4 H52 C48 N12 O16'
_cell_volume   1191.12948520
_cell_formula_units_Z   4
loop_
 _symmetry_equiv_pos_site_id
 _symmetry_equiv_pos_as_xyz
  1  'x, y, z'
loop_
 _atom_site_type_symbol
 _atom_site_label
 _atom_site_symmetry_multiplicity
 _atom_site_fract_x
 _atom_site_fract_y
 _atom_site_fract_z
 _atom_site_occupancy
 _atom_site_charge
Co  Co1  1  0.45306000  0.24224000  0.28747000  1.0 0.7748168059
Co  Co2  1  0.54694000  0.24224000  0.71253000  1.0 0.7748168059
Co  Co3  1  0.04694000  0.75776000  0.78747000  1.0 0.7748168059
Co  Co4  1  0.95306000  0.75776000  0.21253000  1.0 0.7748168059
H  H1  1  0.35070000  0.38950000  0.11440000  1.0 0.1160221271
H  H2  1  0.64930000  0.38950000  0.88560000  1.0 0.1160221271
H  H3  1  0.14930000  0.61050000  0.61440000  1.0 0.1160221271
H  H4  1  0.85070000  0.61050000  0.38560000  1.0 0.1160221271
H  H5  1  0.15670000  0.28160000  0.12250000  1.0 0.1322612561
H  H6  1  0.84330000  0.28160000  0.87750000  1.0 0.1322612561
H  H7  1  0.34330000  0.71840000  0.62250000  1.0 0.1322612561
H  H8  1  0.65670000  0.71840000  0.37750000  1.0 0.1322612561
H  H9  1  0.43610000  0.10630000  0.12540000  1.0 0.0727304019
H  H10  1  0.56390000  0.10630000  0.87460000  1.0 0.0727304019
H  H11  1  0.06390000  0.89370000  0.62540000  1.0 0.0727304019
H  H12  1  0.93610000  0.89370000  0.37460000  1.0 0.0727304019
H  H13  1  0.65590000  0.14340000  0.19610000  1.0 0.2827137358
H  H14  1  0.34410000  0.14340000  0.80390000  1.0 0.2827137358
H  H15  1  0.84410000  0.85660000  0.69610000  1.0 0.2827137358
H  H16  1  0.15590000  0.85660000  0.30390000  1.0 0.2827137358
H  H17  1  0.60290000  0.32840000  0.18520000  1.0 0.2721477545
H  H18  1  0.39710000  0.32840000  0.81480000  1.0 0.2721477545
H  H19  1  0.89710000  0.67160000  0.68520000  1.0 0.2721477545
H  H20  1  0.10290000  0.67160000  0.31480000  1.0 0.2721477545
H  H21  1  0.03810000  0.27360000  0.32810000  1.0 0.1376625992
H  H22  1  0.96190000  0.27360000  0.67190000  1.0 0.1376625992
H  H23  1  0.46190000  0.72640000  0.82810000  1.0 0.1376625992
H  H24  1  0.53810000  0.72640000  0.17190000  1.0 0.1376625992
H  H25  1  0.84900000  0.29740000  0.41390000  1.0 0.0909399994
H  H26  1  0.15100000  0.29740000  0.58610000  1.0 0.0909399994
H  H27  1  0.65100000  0.70260000  0.91390000  1.0 0.0909399994
H  H28  1  0.34900000  0.70260000  0.08610000  1.0 0.0909399994
H  H29  1  0.31620000  0.12130000  0.50860000  1.0 0.0909399994
H  H30  1  0.68380000  0.12130000  0.49140000  1.0 0.0909399994
H  H31  1  0.18380000  0.87870000  0.00860000  1.0 0.0909399994
H  H32  1  0.81620000  0.87870000  0.99140000  1.0 0.0909399994
H  H33  1  0.48450000  0.12890000  0.42170000  1.0 0.1025448687
H  H34  1  0.51550000  0.12890000  0.57830000  1.0 0.1025448687
H  H35  1  0.01550000  0.87110000  0.92170000  1.0 0.1025448687
H  H36  1  0.98450000  0.87110000  0.07830000  1.0 0.1025448687
H  H37  1  0.96350000  0.22600000  0.67160000  1.0 0.1376625992
H  H38  1  0.03650000  0.22600000  0.32840000  1.0 0.1376625992
H  H39  1  0.53650000  0.77400000  0.17160000  1.0 0.1376625992
H  H40  1  0.46350000  0.77400000  0.82840000  1.0 0.1376625992
H  H41  1  0.15460000  0.22710000  0.58600000  1.0 0.0909399994
H  H42  1  0.84540000  0.22710000  0.41400000  1.0 0.0909399994
H  H43  1  0.34540000  0.77290000  0.08600000  1.0 0.0909399994
H  H44  1  0.65460000  0.77290000  0.91400000  1.0 0.0909399994
H  H45  1  0.68620000  0.37120000  0.48970000  1.0 0.0909399994
H  H46  1  0.31380000  0.37120000  0.51030000  1.0 0.0909399994
H  H47  1  0.81380000  0.62880000  0.98970000  1.0 0.0909399994
H  H48  1  0.18620000  0.62880000  0.01030000  1.0 0.0909399994
H  H49  1  0.49980000  0.34800000  0.57820000  1.0 0.0909399994
H  H50  1  0.50020000  0.34800000  0.42180000  1.0 0.0909399994
H  H51  1  0.00020000  0.65200000  0.07820000  1.0 0.0909399994
H  H52  1  0.99980000  0.65200000  0.92180000  1.0 0.0909399994
C  C1  1  0.21000000  0.44630000  0.19430000  1.0 0.6277564116
C  C2  1  0.79000000  0.44630000  0.80570000  1.0 0.6277564116
C  C3  1  0.29000000  0.55370000  0.69430000  1.0 0.6277564116
C  C4  1  0.71000000  0.55370000  0.30570000  1.0 0.6277564116
C  C5  1  0.27350000  0.32260000  0.14375000  1.0 -0.3891182892
C  C6  1  0.72650000  0.32260000  0.85625000  1.0 -0.3891182892
C  C7  1  0.22650000  0.67740000  0.64375000  1.0 -0.3891182892
C  C8  1  0.77350000  0.67740000  0.35625000  1.0 -0.3891182892
C  C9  1  0.38900000  0.16660000  0.16239000  1.0 0.0290627548
C  C10  1  0.61100000  0.16660000  0.83761000  1.0 0.0290627548
C  C11  1  0.11100000  0.83340000  0.66239000  1.0 0.0290627548
C  C12  1  0.88900000  0.83340000  0.33761000  1.0 0.0290627548
C  C13  1  0.26460000  0.04070000  0.19888000  1.0 0.5495658465
C  C14  1  0.73540000  0.04070000  0.80112000  1.0 0.5495658465
C  C15  1  0.23540000  0.95930000  0.69888000  1.0 0.5495658465
C  C16  1  0.76460000  0.95930000  0.30112000  1.0 0.5495658465
C  C17  1  0.97790000  0.25700000  0.41643000  1.0 -0.2526587226
C  C18  1  0.02210000  0.25700000  0.58357000  1.0 -0.2526587226
C  C19  1  0.52210000  0.74300000  0.91643000  1.0 -0.2526587226
C  C20  1  0.47790000  0.74300000  0.08357000  1.0 -0.2526587226
C  C21  1  0.05800000  0.20030000  0.47250000  1.0 0.0604183985
C  C22  1  0.94200000  0.20030000  0.52750000  1.0 0.0604183985
C  C23  1  0.44200000  0.79970000  0.97250000  1.0 0.0604183985
C  C24  1  0.55800000  0.79970000  0.02750000  1.0 0.0604183985
C  C25  1  0.25420000  0.15610000  0.47240000  1.0 -0.165153151
C  C26  1  0.74580000  0.15610000  0.52760000  1.0 -0.165153151
C  C27  1  0.24580000  0.84390000  0.97240000  1.0 -0.165153151
C  C28  1  0.75420000  0.84390000  0.02760000  1.0 -0.165153151
C  C29  1  0.35330000  0.16350000  0.42030000  1.0 0.0117627414
C  C30  1  0.64670000  0.16350000  0.57970000  1.0 0.0117627414
C  C31  1  0.14670000  0.83650000  0.92030000  1.0 0.0117627414
C  C32  1  0.85330000  0.83650000  0.07970000  1.0 0.0117627414
C  C33  1  0.09500000  0.25070000  0.36617000  1.0 -0.009085924
C  C34  1  0.90500000  0.25070000  0.63383000  1.0 -0.009085924
C  C35  1  0.40500000  0.74930000  0.86617000  1.0 -0.009085924
C  C36  1  0.59500000  0.74930000  0.13383000  1.0 -0.009085924
C  C37  1  0.93820000  0.30940000  0.52820000  1.0 0.0604183985
C  C38  1  0.06180000  0.30940000  0.47180000  1.0 0.0604183985
C  C39  1  0.56180000  0.69060000  0.02820000  1.0 0.0604183985
C  C40  1  0.43820000  0.69060000  0.97180000  1.0 0.0604183985
C  C41  1  0.74600000  0.33970000  0.52660000  1.0 -0.153653016
C  C42  1  0.25400000  0.33970000  0.47340000  1.0 -0.153653016
C  C43  1  0.75400000  0.66030000  0.02660000  1.0 -0.153653016
C  C44  1  0.24600000  0.66030000  0.97340000  1.0 -0.153653016
C  C45  1  0.63410000  0.32470000  0.57950000  1.0 0.0019376687
C  C46  1  0.36590000  0.32470000  0.42050000  1.0 0.0019376687
C  C47  1  0.86590000  0.67530000  0.07950000  1.0 0.0019376687
C  C48  1  0.13410000  0.67530000  0.92050000  1.0 0.0019376687
N  N1  1  0.55790000  0.22320000  0.19848000  1.0 -0.626360675
N  N2  1  0.44210000  0.22320000  0.80152000  1.0 -0.626360675
N  N3  1  0.94210000  0.77680000  0.69848000  1.0 -0.626360675
N  N4  1  0.05790000  0.77680000  0.30152000  1.0 -0.626360675
N  N5  1  0.28700000  0.21350000  0.36780000  1.0 0.0019376687
N  N6  1  0.71300000  0.21350000  0.63220000  1.0 0.0019376687
N  N7  1  0.21300000  0.78650000  0.86780000  1.0 0.0019376687
N  N8  1  0.78700000  0.78650000  0.13220000  1.0 0.0019376687
N  N9  1  0.71900000  0.27650000  0.63280000  1.0 0.0290627548
N  N10  1  0.28100000  0.27650000  0.36720000  1.0 0.0290627548
N  N11  1  0.78100000  0.72350000  0.13280000  1.0 0.0290627548
N  N12  1  0.21900000  0.72350000  0.86720000  1.0 0.0290627548
O  O1  1  0.24750000  0.42070000  0.24832000  1.0 -0.5579104774
O  O2  1  0.75250000  0.42070000  0.75168000  1.0 -0.5579104774
O  O3  1  0.25250000  0.57930000  0.74832000  1.0 -0.5579104774
O  O4  1  0.74750000  0.57930000  0.25168000  1.0 -0.5579104774
O  O5  1  0.11530000  0.57150000  0.17423000  1.0 -0.5803653576
O  O6  1  0.88470000  0.57150000  0.82577000  1.0 -0.5803653576
O  O7  1  0.38470000  0.42850000  0.67423000  1.0 -0.5803653576
O  O8  1  0.61530000  0.42850000  0.32577000  1.0 -0.5803653576
O  O9  1  0.29070000  0.03990000  0.25504000  1.0 -0.5405138187
O  O10  1  0.70930000  0.03990000  0.74496000  1.0 -0.5405138187
O  O11  1  0.20930000  0.96010000  0.75504000  1.0 -0.5405138187
O  O12  1  0.79070000  0.96010000  0.24496000  1.0 -0.5405138187
O  O13  1  0.14820000  0.94470000  0.17114000  1.0 -0.5803653576
O  O14  1  0.85180000  0.94470000  0.82886000  1.0 -0.5803653576
O  O15  1  0.35180000  0.05530000  0.67114000  1.0 -0.5803653576
O  O16  1  0.64820000  0.05530000  0.32886000  1.0 -0.5803653576
