# DDEC6 charges by PACMAN v1.1 (https://github.com/mtap-research/PACMAN-charge/)
data_2011[Ag][nan]3[ASR]4
_chemical_formula_sum              "Ag8 H48 C32 N24"
_cell_length_a       12.5316
_cell_length_b       12.5316
_cell_length_c       11.7034
_cell_angle_alpha    73.4263
_cell_angle_beta     106.574
_cell_angle_gamma    63.4945

_symmetry_space_group_name_H-M    "P 1"
_symmetry_Int_Tables_number       1

loop_
  _symmetry_equiv_pos_as_xyz
  'x, y, z'

loop_
  _atom_site_type_symbol
  _atom_site_label
  _atom_site_symmetry_multiplicity
  _atom_site_fract_x
  _atom_site_fract_y
  _atom_site_fract_z
  _atom_site_occupancy
  _atom_site_charge
Ag  Ag1       1.0  0.22461  0.37829  0.81764  1.0000 0.2678667095
Ag  Ag2       1.0  0.37829  0.22461  0.68236  1.0000 0.2678667095
Ag  Ag3       1.0  0.77539  0.62171  0.18236  1.0000 0.2678667095
Ag  Ag4       1.0  0.62171  0.77539  0.31764  1.0000 0.2678667095
Ag  Ag5       1.0  0.28862  0.58582  0.55731  1.0000 0.2797260296
Ag  Ag6       1.0  0.58582  0.28862  0.94269  1.0000 0.2797260296
Ag  Ag7       1.0  0.71138  0.41418  0.44269  1.0000 0.2797260296
Ag  Ag8       1.0  0.41418  0.71138  0.05731  1.0000 0.2797260296
H   H1        1.0  0.34650  0.73290  0.75000  1.0000 0.1107176993
H   H2        1.0  0.73290  0.34650  0.75000  1.0000 0.1107176993
H   H3        1.0  0.65350  0.26710  0.25000  1.0000 0.1107176993
H   H4        1.0  0.26710  0.65350  0.25000  1.0000 0.1107176993
H   H5        1.0  0.34840  0.38920  0.09040  1.0000 0.1107176993
H   H6        1.0  0.38920  0.34840  0.40960  1.0000 0.1107176993
H   H7        1.0  0.65160  0.61080  0.90960  1.0000 0.1107176993
H   H8        1.0  0.61080  0.65160  0.59040  1.0000 0.1107176993
H   H9        1.0  0.35470  0.49430  0.13400  1.0000 0.0993733939
H   H10       1.0  0.49430  0.35470  0.36600  1.0000 0.0993733939
H   H11       1.0  0.64530  0.50570  0.86600  1.0000 0.0993733939
H   H12       1.0  0.50570  0.64530  0.63400  1.0000 0.0993733939
H   H13       1.0  0.17050  0.49590  0.12840  1.0000 0.1211047419
H   H14       1.0  0.49590  0.17050  0.37160  1.0000 0.1211047419
H   H15       1.0  0.82950  0.50410  0.87160  1.0000 0.1211047419
H   H16       1.0  0.50410  0.82950  0.62840  1.0000 0.1211047419
H   H17       1.0  0.11510  0.53230  0.97480  1.0000 0.1211047419
H   H18       1.0  0.53230  0.11510  0.52520  1.0000 0.1211047419
H   H19       1.0  0.88490  0.46770  0.02520  1.0000 0.1211047419
H   H20       1.0  0.46770  0.88490  0.47480  1.0000 0.1211047419
H   H21       1.0  0.12120  0.63760  0.01820  1.0000 0.1211047419
H   H22       1.0  0.63760  0.12120  0.48180  1.0000 0.1211047419
H   H23       1.0  0.87880  0.36240  0.98180  1.0000 0.1211047419
H   H24       1.0  0.36240  0.87880  0.51820  1.0000 0.1211047419
H   H25       1.0  0.69830  0.99590  0.21460  1.0000 0.1107176993
H   H26       1.0  0.99590  0.69830  0.28540  1.0000 0.1107176993
H   H27       1.0  0.30170  0.00410  0.78540  1.0000 0.1107176993
H   H28       1.0  0.00410  0.30170  0.71460  1.0000 0.1107176993
H   H29       1.0  0.32270  0.97770  0.09320  1.0000 0.1107176993
H   H30       1.0  0.97770  0.32270  0.40680  1.0000 0.1107176993
H   H31       1.0  0.67730  0.02230  0.90680  1.0000 0.1107176993
H   H32       1.0  0.02230  0.67730  0.59320  1.0000 0.1107176993
H   H33       1.0  0.22890  0.11950  0.96120  1.0000 0.0993733939
H   H34       1.0  0.11950  0.22890  0.53880  1.0000 0.0993733939
H   H35       1.0  0.77110  0.88050  0.03880  1.0000 0.0993733939
H   H36       1.0  0.88050  0.77110  0.46120  1.0000 0.0993733939
H   H37       1.0  0.14150  0.12770  0.10760  1.0000 0.1211047419
H   H38       1.0  0.12770  0.14150  0.39240  1.0000 0.1211047419
H   H39       1.0  0.85850  0.87230  0.89240  1.0000 0.1211047419
H   H40       1.0  0.87230  0.85850  0.60760  1.0000 0.1211047419
H   H41       1.0  0.27860  0.08280  0.22200  1.0000 0.1255929333
H   H42       1.0  0.08280  0.27860  0.27800  1.0000 0.1255929333
H   H43       1.0  0.72140  0.91720  0.77800  1.0000 0.1255929333
H   H44       1.0  0.91720  0.72140  0.72200  1.0000 0.1255929333
H   H45       1.0  0.18820  0.22560  0.09190  1.0000 0.1211047419
H   H46       1.0  0.22560  0.18820  0.40810  1.0000 0.1211047419
H   H47       1.0  0.81180  0.77440  0.90810  1.0000 0.1211047419
H   H48       1.0  0.77440  0.81180  0.59190  1.0000 0.1211047419
C   C1        1.0  0.30887  0.55127  0.93650  1.0000 0.3082708281
C   C2        1.0  0.55127  0.30887  0.56350  1.0000 0.3082708281
C   C3        1.0  0.69113  0.44873  0.06350  1.0000 0.3082708281
C   C4        1.0  0.44873  0.69113  0.43650  1.0000 0.3082708281
C   C5        1.0  0.33090  0.67110  0.79350  1.0000 0.1107176993
C   C6        1.0  0.67110  0.33090  0.70650  1.0000 0.1107176993
C   C7        1.0  0.66910  0.32890  0.20650  1.0000 0.1107176993
C   C8        1.0  0.32890  0.66910  0.29350  1.0000 0.1107176993
C   C9        1.0  0.30370  0.48550  0.06180  1.0000 -0.248210619
C   C10       1.0  0.48550  0.30370  0.43820  1.0000 -0.248210619
C   C11       1.0  0.69630  0.51450  0.93820  1.0000 -0.248210619
C   C12       1.0  0.51450  0.69630  0.56180  1.0000 -0.248210619
C   C13       1.0  0.16570  0.54290  0.04430  1.0000 -0.3490693012
C   C14       1.0  0.54290  0.16570  0.45570  1.0000 -0.3490693012
C   C15       1.0  0.83430  0.45710  0.95570  1.0000 -0.3490693012
C   C16       1.0  0.45710  0.83430  0.54430  1.0000 -0.3490693012
C   C17       1.0  0.41080  0.08020  0.07820  1.0000 0.3082708281
C   C18       1.0  0.08020  0.41080  0.42180  1.0000 0.3082708281
C   C19       1.0  0.58920  0.91980  0.92180  1.0000 0.3082708281
C   C20       1.0  0.91980  0.58920  0.57820  1.0000 0.3082708281
C   C21       1.0  0.60600  0.03900  0.15900  1.0000 0.0993733939
C   C22       1.0  0.03900  0.60600  0.34100  1.0000 0.0993733939
C   C23       1.0  0.39400  0.96100  0.84100  1.0000 0.0993733939
C   C24       1.0  0.96100  0.39400  0.65900  1.0000 0.0993733939
C   C25       1.0  0.29140  0.07220  0.05780  1.0000 -0.2424891039
C   C26       1.0  0.07220  0.29140  0.44220  1.0000 -0.2424891039
C   C27       1.0  0.70860  0.92780  0.94220  1.0000 -0.2424891039
C   C28       1.0  0.92780  0.70860  0.55780  1.0000 -0.2424891039
C   C29       1.0  0.21860  0.13240  0.12580  1.0000 -0.3566754747
C   C30       1.0  0.13240  0.21860  0.37420  1.0000 -0.3566754747
C   C31       1.0  0.78140  0.86760  0.87420  1.0000 -0.3566754747
C   C32       1.0  0.86760  0.78140  0.62580  1.0000 -0.3566754747
N   N1        1.0  0.28924  0.52044  0.83680  1.0000 -0.2424891039
N   N2        1.0  0.52044  0.28924  0.66320  1.0000 -0.2424891039
N   N3        1.0  0.71076  0.47956  0.16320  1.0000 -0.2424891039
N   N4        1.0  0.47956  0.71076  0.33680  1.0000 -0.2424891039
N   N5        1.0  0.30344  0.60024  0.74210  1.0000 -0.1884302877
N   N6        1.0  0.60024  0.30344  0.75790  1.0000 -0.1884302877
N   N7        1.0  0.69656  0.39976  0.25790  1.0000 -0.1884302877
N   N8        1.0  0.39976  0.69656  0.24210  1.0000 -0.1884302877
N   N9        1.0  0.33431  0.64631  0.91380  1.0000 -0.3490693012
N   N10       1.0  0.64631  0.33431  0.58620  1.0000 -0.3490693012
N   N11       1.0  0.66569  0.35369  0.08620  1.0000 -0.3490693012
N   N12       1.0  0.35369  0.66569  0.41380  1.0000 -0.3490693012
N   N13       1.0  0.40260  0.18580  0.99810  1.0000 -0.2330269355
N   N14       1.0  0.18580  0.40260  0.50190  1.0000 -0.2330269355
N   N15       1.0  0.59740  0.81420  0.00190  1.0000 -0.2330269355
N   N16       1.0  0.81420  0.59740  0.49810  1.0000 -0.2330269355
N   N17       1.0  0.52987  0.15827  0.05130  1.0000 -0.1884302877
N   N18       1.0  0.15827  0.52987  0.44870  1.0000 -0.1884302877
N   N19       1.0  0.47013  0.84173  0.94870  1.0000 -0.1884302877
N   N20       1.0  0.84173  0.47013  0.55130  1.0000 -0.1884302877
N   N21       1.0  0.53775  0.98395  0.18190  1.0000 -0.3490693012
N   N22       1.0  0.98395  0.53775  0.31810  1.0000 -0.3490693012
N   N23       1.0  0.46225  0.01605  0.81810  1.0000 -0.3490693012
N   N24       1.0  0.01605  0.46225  0.68190  1.0000 -0.3490693012
