# DDEC6 charges by PACMAN v1.1 (https://github.com/mtap-research/PACMAN-charge/)
data_2011[Ag][nan]3[ASR]6
_chemical_formula_sum              "Ag16 H96 C64 N48"
_cell_length_a       11.6563
_cell_length_b       21.3866
_cell_length_c       11.9318
_cell_angle_alpha    90
_cell_angle_beta     113.844
_cell_angle_gamma    90

_symmetry_space_group_name_H-M    "P 1"
_symmetry_Int_Tables_number       1

loop_
  _symmetry_equiv_pos_as_xyz
  'x, y, z'

loop_
  _atom_site_type_symbol
  _atom_site_label
  _atom_site_symmetry_multiplicity
  _atom_site_fract_x
  _atom_site_fract_y
  _atom_site_fract_z
  _atom_site_occupancy
  _atom_site_charge
Ag  Ag1       1.0  0.46573  0.81382  0.41206  1.0000 0.2837450167
Ag  Ag2       1.0  0.03427  0.31382  0.58794  1.0000 0.2837450167
Ag  Ag3       1.0  0.53427  0.18618  0.58794  1.0000 0.2837450167
Ag  Ag4       1.0  0.96573  0.68618  0.41206  1.0000 0.2837450167
Ag  Ag5       1.0  0.65085  0.94710  0.32355  1.0000 0.2661269975
Ag  Ag6       1.0  0.84915  0.44710  0.67645  1.0000 0.2661269975
Ag  Ag7       1.0  0.34915  0.05290  0.67645  1.0000 0.2661269975
Ag  Ag8       1.0  0.15085  0.55290  0.32355  1.0000 0.2661269975
Ag  Ag9       1.0  0.55504  0.81368  0.09894  1.0000 0.2837450167
Ag  Ag10      1.0  0.94496  0.31368  0.90106  1.0000 0.2837450167
Ag  Ag11      1.0  0.44496  0.18632  0.90106  1.0000 0.2837450167
Ag  Ag12      1.0  0.05504  0.68632  0.09894  1.0000 0.2837450167
Ag  Ag13      1.0  0.35897  0.94771  0.18155  1.0000 0.2661269975
Ag  Ag14      1.0  0.14103  0.44771  0.81845  1.0000 0.2661269975
Ag  Ag15      1.0  0.64103  0.05229  0.81845  1.0000 0.2661269975
Ag  Ag16      1.0  0.85897  0.55229  0.18155  1.0000 0.2661269975
H   H1        1.0  0.70460  0.71290  0.46130  1.0000 0.1110698799
H   H2        1.0  0.79540  0.21290  0.53870  1.0000 0.1110698799
H   H3        1.0  0.29540  0.28710  0.53870  1.0000 0.1110698799
H   H4        1.0  0.20460  0.78710  0.46130  1.0000 0.1110698799
H   H5        1.0  0.86460  0.87680  0.26730  1.0000 0.1110698799
H   H6        1.0  0.63540  0.37680  0.73270  1.0000 0.1110698799
H   H7        1.0  0.13540  0.12320  0.73270  1.0000 0.1110698799
H   H8        1.0  0.36460  0.62320  0.26730  1.0000 0.1110698799
H   H9        1.0  0.95930  0.82160  0.32090  1.0000 0.1009821238
H   H10       1.0  0.54070  0.32160  0.67910  1.0000 0.1009821238
H   H11       1.0  0.04070  0.17840  0.67910  1.0000 0.1009821238
H   H12       1.0  0.45930  0.67840  0.32090  1.0000 0.1009821238
H   H13       1.0  0.05260  0.91310  0.41180  1.0000 0.1193449411
H   H14       1.0  0.44740  0.41310  0.58820  1.0000 0.1193449411
H   H15       1.0  0.94740  0.08690  0.58820  1.0000 0.1193449411
H   H16       1.0  0.55260  0.58690  0.41180  1.0000 0.1193449411
H   H17       1.0  0.94450  0.92600  0.45510  1.0000 0.1110698799
H   H18       1.0  0.55550  0.42600  0.54490  1.0000 0.1110698799
H   H19       1.0  0.05550  0.07400  0.54490  1.0000 0.1110698799
H   H20       1.0  0.44450  0.57400  0.45510  1.0000 0.1110698799
H   H21       1.0  0.03720  0.87020  0.51130  1.0000 0.1193449411
H   H22       1.0  0.46280  0.37020  0.48870  1.0000 0.1193449411
H   H23       1.0  0.96280  0.12980  0.48870  1.0000 0.1193449411
H   H24       1.0  0.53720  0.62980  0.51130  1.0000 0.1193449411
H   H25       1.0  0.63330  0.90370  0.89710  1.0000 0.1110698799
H   H26       1.0  0.86670  0.40370  0.10290  1.0000 0.1110698799
H   H27       1.0  0.36670  0.09630  0.10290  1.0000 0.1110698799
H   H28       1.0  0.13330  0.59630  0.89710  1.0000 0.1110698799
H   H29       1.0  0.64710  0.07330  0.19080  1.0000 0.1009821238
H   H30       1.0  0.85290  0.57330  0.80920  1.0000 0.1009821238
H   H31       1.0  0.35290  0.92670  0.80920  1.0000 0.1009821238
H   H32       1.0  0.14710  0.42670  0.19080  1.0000 0.1009821238
H   H33       1.0  0.64480  0.09980  0.06740  1.0000 0.1009821238
H   H34       1.0  0.85520  0.59980  0.93260  1.0000 0.1009821238
H   H35       1.0  0.35520  0.90020  0.93260  1.0000 0.1009821238
H   H36       1.0  0.14480  0.40020  0.06740  1.0000 0.1009821238
H   H37       1.0  0.83050  0.12670  0.22610  1.0000 0.1193449411
H   H38       1.0  0.66950  0.62670  0.77390  1.0000 0.1193449411
H   H39       1.0  0.16950  0.87330  0.77390  1.0000 0.1193449411
H   H40       1.0  0.33050  0.37330  0.22610  1.0000 0.1193449411
H   H41       1.0  0.86060  0.05610  0.26050  1.0000 0.1193449411
H   H42       1.0  0.63940  0.55610  0.73950  1.0000 0.1193449411
H   H43       1.0  0.13940  0.94390  0.73950  1.0000 0.1193449411
H   H44       1.0  0.36060  0.44390  0.26050  1.0000 0.1193449411
H   H45       1.0  0.85880  0.08170  0.13670  1.0000 0.1193449411
H   H46       1.0  0.64120  0.58170  0.86330  1.0000 0.1193449411
H   H47       1.0  0.14120  0.91830  0.86330  1.0000 0.1193449411
H   H48       1.0  0.35880  0.41830  0.13670  1.0000 0.1193449411
H   H49       1.0  0.31200  0.71330  0.03970  1.0000 0.1110698799
H   H50       1.0  0.18800  0.21330  0.96030  1.0000 0.1110698799
H   H51       1.0  0.68800  0.28670  0.96030  1.0000 0.1110698799
H   H52       1.0  0.81200  0.78670  0.03970  1.0000 0.1110698799
H   H53       1.0  0.15560  0.87640  0.24060  1.0000 0.1110698799
H   H54       1.0  0.34440  0.37640  0.75940  1.0000 0.1110698799
H   H55       1.0  0.84440  0.12360  0.75940  1.0000 0.1110698799
H   H56       1.0  0.65560  0.62360  0.24060  1.0000 0.1110698799
H   H57       1.0  0.06210  0.82040  0.18980  1.0000 0.1009821238
H   H58       1.0  0.43790  0.32040  0.81020  1.0000 0.1009821238
H   H59       1.0  0.93790  0.17960  0.81020  1.0000 0.1009821238
H   H60       1.0  0.56210  0.67960  0.18980  1.0000 0.1009821238
H   H61       1.0  0.96450  0.91120  0.09720  1.0000 0.1193449411
H   H62       1.0  0.53550  0.41120  0.90280  1.0000 0.1193449411
H   H63       1.0  0.03550  0.08880  0.90280  1.0000 0.1193449411
H   H64       1.0  0.46450  0.58880  0.09720  1.0000 0.1193449411
H   H65       1.0  0.97920  0.86800  0.99760  1.0000 0.1193449411
H   H66       1.0  0.52080  0.36800  0.00240  1.0000 0.1193449411
H   H67       1.0  0.02080  0.13200  0.00240  1.0000 0.1193449411
H   H68       1.0  0.47920  0.63200  0.99760  1.0000 0.1193449411
H   H69       1.0  0.07050  0.92460  0.05130  1.0000 0.1110698799
H   H70       1.0  0.42950  0.42460  0.94870  1.0000 0.1110698799
H   H71       1.0  0.92950  0.07540  0.94870  1.0000 0.1110698799
H   H72       1.0  0.57050  0.57540  0.05130  1.0000 0.1110698799
H   H73       1.0  0.39690  0.90480  0.61580  1.0000 0.1110698799
H   H74       1.0  0.10310  0.40480  0.38420  1.0000 0.1110698799
H   H75       1.0  0.60310  0.09520  0.38420  1.0000 0.1110698799
H   H76       1.0  0.89690  0.59520  0.61580  1.0000 0.1110698799
H   H77       1.0  0.31740  0.09740  0.42170  1.0000 0.1110698799
H   H78       1.0  0.18260  0.59740  0.57830  1.0000 0.1110698799
H   H79       1.0  0.68260  0.90260  0.57830  1.0000 0.1110698799
H   H80       1.0  0.81740  0.40260  0.42170  1.0000 0.1110698799
H   H81       1.0  0.32930  0.07250  0.30350  1.0000 0.1009821238
H   H82       1.0  0.17070  0.57250  0.69650  1.0000 0.1009821238
H   H83       1.0  0.67070  0.92750  0.69650  1.0000 0.1009821238
H   H84       1.0  0.82930  0.42750  0.30350  1.0000 0.1009821238
H   H85       1.0  0.13390  0.10990  0.25520  1.0000 0.1193449411
H   H86       1.0  0.36610  0.60990  0.74480  1.0000 0.1193449411
H   H87       1.0  0.86610  0.89010  0.74480  1.0000 0.1193449411
H   H88       1.0  0.63390  0.39010  0.25520  1.0000 0.1193449411
H   H89       1.0  0.11500  0.06400  0.34890  1.0000 0.1193449411
H   H90       1.0  0.38500  0.56400  0.65110  1.0000 0.1193449411
H   H91       1.0  0.88500  0.93600  0.65110  1.0000 0.1193449411
H   H92       1.0  0.61500  0.43600  0.34890  1.0000 0.1193449411
H   H93       1.0  0.12660  0.03760  0.23130  1.0000 0.1193449411
H   H94       1.0  0.37340  0.53760  0.76870  1.0000 0.1193449411
H   H95       1.0  0.87340  0.96240  0.76870  1.0000 0.1193449411
H   H96       1.0  0.62660  0.46240  0.23130  1.0000 0.1193449411
C   C1        1.0  0.81470  0.81855  0.37430  1.0000 0.3100351317
C   C2        1.0  0.68530  0.31855  0.62570  1.0000 0.3100351317
C   C3        1.0  0.18530  0.18145  0.62570  1.0000 0.3100351317
C   C4        1.0  0.31470  0.68145  0.37430  1.0000 0.3100351317
C   C5        1.0  0.72320  0.75034  0.43250  1.0000 0.1110698799
C   C6        1.0  0.77680  0.25034  0.56750  1.0000 0.1110698799
C   C7        1.0  0.27680  0.24966  0.56750  1.0000 0.1110698799
C   C8        1.0  0.22320  0.74966  0.43250  1.0000 0.1110698799
C   C9        1.0  0.90880  0.85220  0.34040  1.0000 -0.246781662
C   C10       1.0  0.59120  0.35220  0.65960  1.0000 -0.246781662
C   C11       1.0  0.09120  0.14780  0.65960  1.0000 -0.246781662
C   C12       1.0  0.40880  0.64780  0.34040  1.0000 -0.246781662
C   C13       1.0  0.99320  0.89410  0.43830  1.0000 -0.3508227805
C   C14       1.0  0.50680  0.39410  0.56170  1.0000 -0.3508227805
C   C15       1.0  0.00680  0.10590  0.56170  1.0000 -0.3508227805
C   C16       1.0  0.49320  0.60590  0.43830  1.0000 -0.3508227805
C   C17       1.0  0.66220  0.00518  0.07880  1.0000 0.3100351317
C   C18       1.0  0.83780  0.50518  0.92120  1.0000 0.3100351317
C   C19       1.0  0.33780  0.99482  0.92120  1.0000 0.3100351317
C   C20       1.0  0.16220  0.49482  0.07880  1.0000 0.3100351317
C   C21       1.0  0.63950  0.92830  0.96360  1.0000 0.1009821238
C   C22       1.0  0.86050  0.42830  0.03640  1.0000 0.1009821238
C   C23       1.0  0.36050  0.07170  0.03640  1.0000 0.1009821238
C   C24       1.0  0.13950  0.57170  0.96360  1.0000 0.1009821238
C   C25       1.0  0.68510  0.06967  0.13230  1.0000 -0.2395186349
C   C26       1.0  0.81490  0.56967  0.86770  1.0000 -0.2395186349
C   C27       1.0  0.31490  0.93033  0.86770  1.0000 -0.2395186349
C   C28       1.0  0.18510  0.43033  0.13230  1.0000 -0.2395186349
C   C29       1.0  0.82070  0.08490  0.19440  1.0000 -0.3508227805
C   C30       1.0  0.67930  0.58490  0.80560  1.0000 -0.3508227805
C   C31       1.0  0.17930  0.91510  0.80560  1.0000 -0.3508227805
C   C32       1.0  0.32070  0.41510  0.19440  1.0000 -0.3508227805
C   C33       1.0  0.20390  0.81814  0.13300  1.0000 0.3100351317
C   C34       1.0  0.29610  0.31814  0.86700  1.0000 0.3100351317
C   C35       1.0  0.79610  0.18186  0.86700  1.0000 0.3100351317
C   C36       1.0  0.70390  0.68186  0.13300  1.0000 0.3100351317
C   C37       1.0  0.29430  0.75038  0.07030  1.0000 0.1110698799
C   C38       1.0  0.20570  0.25038  0.92970  1.0000 0.1110698799
C   C39       1.0  0.70570  0.24962  0.92970  1.0000 0.1110698799
C   C40       1.0  0.79430  0.74962  0.07030  1.0000 0.1110698799
C   C41       1.0  0.11090  0.85123  0.16830  1.0000 -0.246781662
C   C42       1.0  0.38910  0.35123  0.83170  1.0000 -0.246781662
C   C43       1.0  0.88910  0.14877  0.83170  1.0000 -0.246781662
C   C44       1.0  0.61090  0.64877  0.16830  1.0000 -0.246781662
C   C45       1.0  0.02340  0.89240  0.06980  1.0000 -0.3508227805
C   C46       1.0  0.47660  0.39240  0.93020  1.0000 -0.3508227805
C   C47       1.0  0.97660  0.10760  0.93020  1.0000 -0.3508227805
C   C48       1.0  0.52340  0.60760  0.06980  1.0000 -0.3508227805
C   C49       1.0  0.33390  0.00318  0.42090  1.0000 0.3100351317
C   C50       1.0  0.16610  0.50318  0.57910  1.0000 0.3100351317
C   C51       1.0  0.66610  0.99682  0.57910  1.0000 0.3100351317
C   C52       1.0  0.83390  0.49682  0.42090  1.0000 0.3100351317
C   C53       1.0  0.38090  0.92832  0.54550  1.0000 0.1009821238
C   C54       1.0  0.11910  0.42832  0.45450  1.0000 0.1009821238
C   C55       1.0  0.61910  0.07168  0.45450  1.0000 0.1009821238
C   C56       1.0  0.88090  0.57168  0.54550  1.0000 0.1009821238
C   C57       1.0  0.28990  0.06490  0.35990  1.0000 -0.2395186349
C   C58       1.0  0.21010  0.56490  0.64010  1.0000 -0.2395186349
C   C59       1.0  0.71010  0.93510  0.64010  1.0000 -0.2395186349
C   C60       1.0  0.78990  0.43510  0.35990  1.0000 -0.2395186349
C   C61       1.0  0.15490  0.06950  0.29320  1.0000 -0.3508227805
C   C62       1.0  0.34510  0.56950  0.70680  1.0000 -0.3508227805
C   C63       1.0  0.84510  0.93050  0.70680  1.0000 -0.3508227805
C   C64       1.0  0.65490  0.43050  0.29320  1.0000 -0.3508227805
N   N1        1.0  0.70850  0.84431  0.36660  1.0000 -0.2395186349
N   N2        1.0  0.79150  0.34431  0.63340  1.0000 -0.2395186349
N   N3        1.0  0.29150  0.15569  0.63340  1.0000 -0.2395186349
N   N4        1.0  0.20850  0.65569  0.36660  1.0000 -0.2395186349
N   N5        1.0  0.64860  0.79928  0.40550  1.0000 -0.1873376578
N   N6        1.0  0.85140  0.29928  0.59450  1.0000 -0.1873376578
N   N7        1.0  0.35140  0.20072  0.59450  1.0000 -0.1873376578
N   N8        1.0  0.14860  0.70072  0.40550  1.0000 -0.1873376578
N   N9        1.0  0.82880  0.75936  0.41480  1.0000 -0.3508227805
N   N10       1.0  0.67120  0.25936  0.58520  1.0000 -0.3508227805
N   N11       1.0  0.17120  0.24064  0.58520  1.0000 -0.3508227805
N   N12       1.0  0.32880  0.74064  0.41480  1.0000 -0.3508227805
N   N13       1.0  0.64600  0.95628  0.13790  1.0000 -0.2329336369
N   N14       1.0  0.85400  0.45628  0.86210  1.0000 -0.2329336369
N   N15       1.0  0.35400  0.04372  0.86210  1.0000 -0.2329336369
N   N16       1.0  0.14600  0.54372  0.13790  1.0000 -0.2329336369
N   N17       1.0  0.63040  0.90557  0.06170  1.0000 -0.1873376578
N   N18       1.0  0.86960  0.40557  0.93830  1.0000 -0.1873376578
N   N19       1.0  0.36960  0.09443  0.93830  1.0000 -0.1873376578
N   N20       1.0  0.13040  0.59443  0.06170  1.0000 -0.1873376578
N   N21       1.0  0.65860  0.99025  0.96800  1.0000 -0.3426844889
N   N22       1.0  0.84140  0.49025  0.03200  1.0000 -0.3426844889
N   N23       1.0  0.34140  0.00975  0.03200  1.0000 -0.3426844889
N   N24       1.0  0.15860  0.50975  0.96800  1.0000 -0.3426844889
N   N25       1.0  0.31040  0.84373  0.14040  1.0000 -0.2395186349
N   N26       1.0  0.18960  0.34373  0.85960  1.0000 -0.246781662
N   N27       1.0  0.68960  0.15627  0.85960  1.0000 -0.246781662
N   N28       1.0  0.81040  0.65627  0.14040  1.0000 -0.246781662
N   N29       1.0  0.36940  0.79892  0.09880  1.0000 -0.1848129073
N   N30       1.0  0.13060  0.29892  0.90120  1.0000 -0.1873376578
N   N31       1.0  0.63060  0.20108  0.90120  1.0000 -0.1873376578
N   N32       1.0  0.86940  0.70108  0.09880  1.0000 -0.1873376578
N   N33       1.0  0.18910  0.75909  0.08970  1.0000 -0.3508227805
N   N34       1.0  0.31090  0.25909  0.91030  1.0000 -0.3508227805
N   N35       1.0  0.81090  0.24091  0.91030  1.0000 -0.3508227805
N   N36       1.0  0.68910  0.74091  0.08970  1.0000 -0.3508227805
N   N37       1.0  0.36060  0.95502  0.36590  1.0000 -0.2329336369
N   N38       1.0  0.13940  0.45502  0.63410  1.0000 -0.2329336369
N   N39       1.0  0.63940  0.04498  0.63410  1.0000 -0.2329336369
N   N40       1.0  0.86060  0.54498  0.36590  1.0000 -0.2329336369
N   N41       1.0  0.39160  0.90615  0.44800  1.0000 -0.1873376578
N   N42       1.0  0.10840  0.40615  0.55200  1.0000 -0.1873376578
N   N43       1.0  0.60840  0.09385  0.55200  1.0000 -0.1873376578
N   N44       1.0  0.89160  0.59385  0.44800  1.0000 -0.1873376578
N   N45       1.0  0.34430  0.98867  0.53410  1.0000 -0.3426844889
N   N46       1.0  0.15570  0.48867  0.46590  1.0000 -0.3426844889
N   N47       1.0  0.65570  0.01133  0.46590  1.0000 -0.3426844889
N   N48       1.0  0.84430  0.51133  0.53410  1.0000 -0.3426844889
