# DDEC6 charges by PACMAN v1.1 (https://github.com/mtap-research/PACMAN-charge/)
data_PAPXUB_ASR_pacman
_symmetry_space_group_name_H-M   'P 1'
_cell_length_a   13.47830000
_cell_length_b   13.47830000
_cell_length_c   10.88800000
_cell_angle_alpha   70.64660000
_cell_angle_beta   109.35300000
_cell_angle_gamma   123.19600000
_symmetry_Int_Tables_number   1
_chemical_formula_structural   CdH22C28S2(N3O)2
_chemical_formula_sum   'Cd2 H44 C56 S4 N12 O4'
_cell_volume   1533.21252157
_cell_formula_units_Z   2
loop_
 _symmetry_equiv_pos_site_id
 _symmetry_equiv_pos_as_xyz
  1  'x, y, z'
loop_
 _atom_site_type_symbol
 _atom_site_label
 _atom_site_symmetry_multiplicity
 _atom_site_fract_x
 _atom_site_fract_y
 _atom_site_fract_z
 _atom_site_occupancy
 _atom_site_charge
Cd  Cd1  1  0.07914000  0.07914000  0.75000000  1.0 0.7126761403
Cd  Cd2  1  0.92086000  0.92086000  0.25000000  1.0 0.7126761403
H  H1  1  0.35560000  0.21560000  0.89290000  1.0 0.1017272871
H  H2  1  0.21560000  0.35560000  0.60710000  1.0 0.1017272871
H  H3  1  0.64440000  0.78440000  0.10710000  1.0 0.1017272871
H  H4  1  0.78440000  0.64440000  0.39290000  1.0 0.1017272871
H  H5  1  0.55260000  0.28980000  0.87960000  1.0 0.1213286893
H  H6  1  0.28980000  0.55260000  0.62040000  1.0 0.1213286893
H  H7  1  0.44740000  0.71020000  0.12040000  1.0 0.1213286893
H  H8  1  0.71020000  0.44740000  0.37960000  1.0 0.1213286893
H  H9  1  0.59280000  0.26700000  0.69940000  1.0 0.1213286893
H  H10  1  0.26700000  0.59280000  0.80060000  1.0 0.1213286893
H  H11  1  0.40720000  0.73300000  0.30060000  1.0 0.1213286893
H  H12  1  0.73300000  0.40720000  0.19940000  1.0 0.1213286893
H  H13  1  0.23470000  0.09910000  0.55860000  1.0 0.1086281474
H  H14  1  0.09910000  0.23470000  0.94140000  1.0 0.1086281474
H  H15  1  0.76530000  0.90090000  0.44140000  1.0 0.1086281474
H  H16  1  0.90090000  0.76530000  0.05860000  1.0 0.1086281474
H  H17  1  0.39380000  0.19260000  0.40920000  1.0 0.1086281474
H  H18  1  0.19260000  0.39380000  0.09080000  1.0 0.1086281474
H  H19  1  0.60620000  0.80740000  0.59080000  1.0 0.1086281474
H  H20  1  0.80740000  0.60620000  0.90920000  1.0 0.1086281474
H  H21  1  0.39280000  0.06980000  0.49590000  1.0 0.1017272871
H  H22  1  0.06980000  0.39280000  0.00410000  1.0 0.1017272871
H  H23  1  0.60720000  0.93020000  0.50410000  1.0 0.1017272871
H  H24  1  0.93020000  0.60720000  0.99590000  1.0 0.1017272871
H  H25  1  0.76300000  0.24560000  0.53530000  1.0 0.1213286893
H  H26  1  0.24560000  0.76300000  0.96470000  1.0 0.1213286893
H  H27  1  0.23700000  0.75440000  0.46470000  1.0 0.1213286893
H  H28  1  0.75440000  0.23700000  0.03530000  1.0 0.1213286893
H  H29  1  0.84550000  0.20030000  0.41930000  1.0 0.1086281474
H  H30  1  0.20030000  0.84550000  0.08070000  1.0 0.1086281474
H  H31  1  0.15450000  0.79970000  0.58070000  1.0 0.1086281474
H  H32  1  0.79970000  0.15450000  0.91930000  1.0 0.1086281474
H  H33  1  0.72760000  0.10880000  0.23520000  1.0 0.1086281474
H  H34  1  0.10880000  0.72760000  0.26480000  1.0 0.1086281474
H  H35  1  0.27240000  0.89120000  0.76480000  1.0 0.1086281474
H  H36  1  0.89120000  0.27240000  0.73520000  1.0 0.1086281474
H  H37  1  0.44040000  0.10580000  0.28730000  1.0 0.1256871845
H  H38  1  0.10580000  0.44040000  0.21270000  1.0 0.1256871845
H  H39  1  0.55960000  0.89420000  0.71270000  1.0 0.1256871845
H  H40  1  0.89420000  0.55960000  0.78730000  1.0 0.1256871845
H  H41  1  0.41540000  0.02340000  0.10080000  1.0 0.1017272871
H  H42  1  0.02340000  0.41540000  0.39920000  1.0 0.1017272871
H  H43  1  0.58460000  0.97660000  0.89920000  1.0 0.1017272871
H  H44  1  0.97660000  0.58460000  0.60080000  1.0 0.1017272871
C  C1  1  0.37096000  0.20644000  0.81930000  1.0 0.0629649933
C  C2  1  0.20644000  0.37096000  0.68070000  1.0 0.0629649933
C  C3  1  0.62904000  0.79356000  0.18070000  1.0 0.0629649933
C  C4  1  0.79356000  0.62904000  0.31930000  1.0 0.0629649933
C  C5  1  0.48830000  0.25050000  0.81230000  1.0 -0.1232433219
C  C6  1  0.25050000  0.48830000  0.68770000  1.0 -0.1232433219
C  C7  1  0.51170000  0.74950000  0.18770000  1.0 -0.1232433219
C  C8  1  0.74950000  0.51170000  0.31230000  1.0 -0.1232433219
C  C9  1  0.51210000  0.23710000  0.70600000  1.0 -0.0929172739
C  C10  1  0.23710000  0.51210000  0.79400000  1.0 -0.0929172739
C  C11  1  0.48790000  0.76290000  0.29400000  1.0 -0.0929172739
C  C12  1  0.76290000  0.48790000  0.20600000  1.0 -0.0929172739
C  C13  1  0.41616000  0.17924000  0.60960000  1.0 0.0468572665
C  C14  1  0.17924000  0.41616000  0.89040000  1.0 0.0468572665
C  C15  1  0.58384000  0.82076000  0.39040000  1.0 0.0468572665
C  C16  1  0.82076000  0.58384000  0.10960000  1.0 0.0468572665
C  C17  1  0.30080000  0.13840000  0.62470000  1.0 0.0202390102
C  C18  1  0.13840000  0.30080000  0.87530000  1.0 0.0202390102
C  C19  1  0.69920000  0.86160000  0.37530000  1.0 0.0202390102
C  C20  1  0.86160000  0.69920000  0.12470000  1.0 0.0202390102
C  C21  1  0.43183000  0.15757000  0.49240000  1.0 -0.0689667172
C  C22  1  0.15757000  0.43183000  0.00760000  1.0 -0.0689667172
C  C23  1  0.56817000  0.84243000  0.50760000  1.0 -0.0689667172
C  C24  1  0.84243000  0.56817000  0.99240000  1.0 -0.0689667172
C  C25  1  0.59488000  0.17952000  0.42170000  1.0 0.2486900117
C  C26  1  0.17952000  0.59488000  0.07830000  1.0 0.2486900117
C  C27  1  0.40512000  0.82048000  0.57830000  1.0 0.2486900117
C  C28  1  0.82048000  0.40512000  0.92170000  1.0 0.2486900117
C  C29  1  0.71460000  0.20780000  0.46080000  1.0 -0.2173349683
C  C30  1  0.20780000  0.71460000  0.03920000  1.0 -0.2173349683
C  C31  1  0.28540000  0.79220000  0.53920000  1.0 -0.2173349683
C  C32  1  0.79220000  0.28540000  0.96080000  1.0 -0.2173349683
C  C33  1  0.76334000  0.18126000  0.39180000  1.0 -0.0689667172
C  C34  1  0.18126000  0.76334000  0.10820000  1.0 -0.0689667172
C  C35  1  0.23666000  0.81874000  0.60820000  1.0 -0.0689667172
C  C36  1  0.81874000  0.23666000  0.89180000  1.0 -0.0689667172
C  C37  1  0.69340000  0.12700000  0.28250000  1.0 -0.1623468522
C  C38  1  0.12700000  0.69340000  0.21750000  1.0 -0.1623468522
C  C39  1  0.30660000  0.87300000  0.71750000  1.0 -0.1623468522
C  C40  1  0.87300000  0.30660000  0.78250000  1.0 -0.1623468522
C  C41  1  0.57262000  0.09898000  0.24200000  1.0 0.1086281474
C  C42  1  0.09898000  0.57262000  0.25800000  1.0 0.1086281474
C  C43  1  0.42738000  0.90102000  0.75800000  1.0 0.1086281474
C  C44  1  0.90102000  0.42738000  0.74200000  1.0 0.1086281474
C  C45  1  0.52278000  0.12522000  0.31320000  1.0 -0.2852344785
C  C46  1  0.12522000  0.52278000  0.18680000  1.0 -0.2852344785
C  C47  1  0.47722000  0.87478000  0.68680000  1.0 -0.2852344785
C  C48  1  0.87478000  0.47722000  0.81320000  1.0 -0.2852344785
C  C49  1  0.49834000  0.04486000  0.12480000  1.0 0.0338357228
C  C50  1  0.04486000  0.49834000  0.37520000  1.0 0.0338357228
C  C51  1  0.50166000  0.95514000  0.87520000  1.0 0.0338357228
C  C52  1  0.95514000  0.50166000  0.62480000  1.0 0.0338357228
C  C53  1  0.85854000  0.98306000  0.90880000  1.0 0.2573433469
C  C54  1  0.98306000  0.85854000  0.59120000  1.0 0.2573433469
C  C55  1  0.14146000  0.01694000  0.09120000  1.0 0.2573433469
C  C56  1  0.01694000  0.14146000  0.40880000  1.0 0.2573433469
S  S1  1  0.85033000  0.01729000  0.74787000  1.0 -0.3296634828
S  S2  1  0.01729000  0.85033000  0.75213000  1.0 -0.3296634828
S  S3  1  0.14967000  0.98271000  0.25213000  1.0 -0.3296634828
S  S4  1  0.98271000  0.14967000  0.24787000  1.0 -0.3296634828
N  N1  1  0.27702000  0.15098000  0.72660000  1.0 -0.2120216165
N  N2  1  0.15098000  0.27702000  0.77340000  1.0 -0.2120216165
N  N3  1  0.72298000  0.84902000  0.27340000  1.0 -0.2120216165
N  N4  1  0.84902000  0.72298000  0.22660000  1.0 -0.2120216165
N  N5  1  0.54303000  0.02597000  0.05410000  1.0 -0.1733195402
N  N6  1  0.02597000  0.54303000  0.44590000  1.0 -0.1733195402
N  N7  1  0.45697000  0.97403000  0.94590000  1.0 -0.1733195402
N  N8  1  0.97403000  0.45697000  0.55410000  1.0 -0.1733195402
N  N9  1  0.86292000  0.96088000  0.02190000  1.0 -0.4569297631
N  N10  1  0.96088000  0.86292000  0.47810000  1.0 -0.4569297631
N  N11  1  0.13708000  0.03912000  0.97810000  1.0 -0.4569297631
N  N12  1  0.03912000  0.13708000  0.52190000  1.0 -0.4569297631
O  O1  1  0.55700000  0.21280000  0.49620000  1.0 -0.1733195402
O  O2  1  0.21280000  0.55700000  0.00380000  1.0 -0.1733195402
O  O3  1  0.44300000  0.78720000  0.50380000  1.0 -0.1733195402
O  O4  1  0.78720000  0.44300000  0.99620000  1.0 -0.1733195402
