# DDEC6 charges by PACMAN v1.1 (https://github.com/mtap-research/PACMAN-charge/)
data_2011[Ni][dia]3[ASR]1
_chemical_formula_sum              "Ni4 H40 C64 N16 O16"
_cell_length_a       15.0363
_cell_length_b       15.0363
_cell_length_c       8.3862
_cell_angle_alpha    90
_cell_angle_beta     90
_cell_angle_gamma    90

_symmetry_space_group_name_H-M    "P 1"
_symmetry_Int_Tables_number       1

loop_
  _symmetry_equiv_pos_as_xyz
  'x, y, z'

loop_
  _atom_site_type_symbol
  _atom_site_label
  _atom_site_symmetry_multiplicity
  _atom_site_fract_x
  _atom_site_fract_y
  _atom_site_fract_z
  _atom_site_occupancy
  _atom_site_charge
Ni  Ni1       1.0  0.74420  0.74420  0.00000  1.0000 0.6883014598
Ni  Ni2       1.0  0.25580  0.25580  0.50000  1.0000 0.6883014598
Ni  Ni3       1.0  0.24420  0.75580  0.75000  1.0000 0.6883014598
Ni  Ni4       1.0  0.75580  0.24420  0.25000  1.0000 0.6883014598
H   H1        1.0  0.92290  0.72580  0.82460  1.0000 0.1169768729
H   H2        1.0  0.07710  0.27420  0.32460  1.0000 0.1169768729
H   H3        1.0  0.22580  0.57710  0.57460  1.0000 0.1169768729
H   H4        1.0  0.77420  0.42290  0.07460  1.0000 0.1169768729
H   H5        1.0  0.42290  0.77420  0.92540  1.0000 0.1169768729
H   H6        1.0  0.57710  0.22580  0.42540  1.0000 0.1169768729
H   H7        1.0  0.72580  0.92290  0.17540  1.0000 0.1169768729
H   H8        1.0  0.27420  0.07710  0.67540  1.0000 0.1169768729
H   H9        1.0  0.06850  0.72620  0.93150  1.0000 0.3131717005
H   H10       1.0  0.93150  0.27380  0.43150  1.0000 0.3131717005
H   H11       1.0  0.22620  0.43150  0.68150  1.0000 0.3131717005
H   H12       1.0  0.77380  0.56850  0.18150  1.0000 0.3131717005
H   H13       1.0  0.56850  0.77380  0.81850  1.0000 0.3131717005
H   H14       1.0  0.43150  0.22620  0.31850  1.0000 0.3131717005
H   H15       1.0  0.72620  0.06850  0.06850  1.0000 0.3131717005
H   H16       1.0  0.27380  0.93150  0.56850  1.0000 0.3131717005
H   H17       1.0  0.13900  0.74200  0.24300  1.0000 0.1394790214
H   H18       1.0  0.86100  0.25800  0.74300  1.0000 0.1394790214
H   H19       1.0  0.24200  0.36100  0.99300  1.0000 0.1394790214
H   H20       1.0  0.75800  0.63900  0.49300  1.0000 0.1394790214
H   H21       1.0  0.63900  0.75800  0.50700  1.0000 0.1394790214
H   H22       1.0  0.36100  0.24200  0.00700  1.0000 0.1394790214
H   H23       1.0  0.74200  0.13900  0.75700  1.0000 0.1394790214
H   H24       1.0  0.25800  0.86100  0.25700  1.0000 0.1394790214
H   H25       1.0  0.94900  0.77900  0.56300  1.0000 0.1143139013
H   H26       1.0  0.05100  0.22100  0.06300  1.0000 0.1143139013
H   H27       1.0  0.27900  0.55100  0.31300  1.0000 0.1143139013
H   H28       1.0  0.72100  0.44900  0.81300  1.0000 0.1143139013
H   H29       1.0  0.44900  0.72100  0.18700  1.0000 0.1143139013
H   H30       1.0  0.55100  0.27900  0.68700  1.0000 0.1143139013
H   H31       1.0  0.77900  0.94900  0.43700  1.0000 0.1143139013
H   H32       1.0  0.22100  0.05100  0.93700  1.0000 0.1143139013
H   H33       1.0  0.83700  0.76900  0.36600  1.0000 0.1339674675
H   H34       1.0  0.16300  0.23100  0.86600  1.0000 0.1339674675
H   H35       1.0  0.26900  0.66300  0.11600  1.0000 0.1339674675
H   H36       1.0  0.73100  0.33700  0.61600  1.0000 0.1339674675
H   H37       1.0  0.33700  0.73100  0.38400  1.0000 0.1339674675
H   H38       1.0  0.66300  0.26900  0.88400  1.0000 0.1339674675
H   H39       1.0  0.76900  0.83700  0.63400  1.0000 0.1339674675
H   H40       1.0  0.23100  0.16300  0.13400  1.0000 0.1339674675
C   C1        1.0  0.12230  0.75900  0.55190  1.0000 0.5367694803
C   C2        1.0  0.87770  0.24100  0.05190  1.0000 0.5367694803
C   C3        1.0  0.25900  0.37770  0.30190  1.0000 0.5367694803
C   C4        1.0  0.74100  0.62230  0.80190  1.0000 0.5367694803
C   C5        1.0  0.62230  0.74100  0.19810  1.0000 0.5367694803
C   C6        1.0  0.37770  0.25900  0.69810  1.0000 0.5367694803
C   C7        1.0  0.75900  0.12230  0.44810  1.0000 0.5367694803
C   C8        1.0  0.24100  0.87770  0.94810  1.0000 0.5367694803
C   C9        1.0  0.05520  0.75780  0.42100  1.0000 -0.0174774291
C   C10       1.0  0.94480  0.24220  0.92100  1.0000 -0.0174774291
C   C11       1.0  0.25780  0.44480  0.17100  1.0000 -0.0174774291
C   C12       1.0  0.74220  0.55520  0.67100  1.0000 -0.0174774291
C   C13       1.0  0.55520  0.74220  0.32900  1.0000 -0.0174774291
C   C14       1.0  0.44480  0.25780  0.82900  1.0000 -0.0174774291
C   C15       1.0  0.75780  0.05520  0.57900  1.0000 -0.0174774291
C   C16       1.0  0.24220  0.94480  0.07900  1.0000 -0.0174774291
C   C17       1.0  0.96400  0.76700  0.45750  1.0000 -0.1320020623
C   C18       1.0  0.03600  0.23300  0.95750  1.0000 -0.1320020623
C   C19       1.0  0.26700  0.53600  0.20750  1.0000 -0.1320020623
C   C20       1.0  0.73300  0.46400  0.70750  1.0000 -0.1320020623
C   C21       1.0  0.46400  0.73300  0.29250  1.0000 -0.1320020623
C   C22       1.0  0.53600  0.26700  0.79250  1.0000 -0.1320020623
C   C23       1.0  0.76700  0.96400  0.54250  1.0000 -0.1320020623
C   C24       1.0  0.23300  0.03600  0.04250  1.0000 -0.1320020623
C   C25       1.0  0.89890  0.76270  0.34220  1.0000 -0.1708969633
C   C26       1.0  0.10110  0.23730  0.84220  1.0000 -0.1708969633
C   C27       1.0  0.26270  0.60110  0.09220  1.0000 -0.1708969633
C   C28       1.0  0.73730  0.39890  0.59220  1.0000 -0.1708969633
C   C29       1.0  0.39890  0.73730  0.40780  1.0000 -0.1708969633
C   C30       1.0  0.60110  0.26270  0.90780  1.0000 -0.1708969633
C   C31       1.0  0.76270  0.89890  0.65780  1.0000 -0.1708969633
C   C32       1.0  0.23730  0.10110  0.15780  1.0000 -0.1708969633
C   C33       1.0  0.92580  0.74870  0.18430  1.0000 0.1394790214
C   C34       1.0  0.07420  0.25130  0.68430  1.0000 0.1394790214
C   C35       1.0  0.24870  0.57420  0.93430  1.0000 0.1394790214
C   C36       1.0  0.75130  0.42580  0.43430  1.0000 0.1394790214
C   C37       1.0  0.42580  0.75130  0.56570  1.0000 0.1394790214
C   C38       1.0  0.57420  0.24870  0.06570  1.0000 0.1394790214
C   C39       1.0  0.74870  0.92580  0.81570  1.0000 0.1394790214
C   C40       1.0  0.25130  0.07420  0.31570  1.0000 0.1394790214
C   C41       1.0  0.01650  0.74320  0.15020  1.0000 0.1339674675
C   C42       1.0  0.98350  0.25680  0.65020  1.0000 0.1339674675
C   C43       1.0  0.24320  0.48350  0.90020  1.0000 0.1339674675
C   C44       1.0  0.75680  0.51650  0.40020  1.0000 0.1339674675
C   C45       1.0  0.51650  0.75680  0.59980  1.0000 0.1339674675
C   C46       1.0  0.48350  0.24320  0.09980  1.0000 0.1339674675
C   C47       1.0  0.74320  0.01650  0.84980  1.0000 0.1339674675
C   C48       1.0  0.25680  0.98350  0.34980  1.0000 0.1339674675
C   C49       1.0  0.08180  0.74700  0.26610  1.0000 -0.1812764622
C   C50       1.0  0.91820  0.25300  0.76610  1.0000 -0.1812764622
C   C51       1.0  0.24700  0.41820  0.01610  1.0000 -0.1812764622
C   C52       1.0  0.75300  0.58180  0.51610  1.0000 -0.1812764622
C   C53       1.0  0.58180  0.75300  0.48390  1.0000 -0.1812764622
C   C54       1.0  0.41820  0.24700  0.98390  1.0000 -0.1812764622
C   C55       1.0  0.74700  0.08180  0.73390  1.0000 -0.1812764622
C   C56       1.0  0.25300  0.91820  0.23390  1.0000 -0.1812764622
C   C57       1.0  0.93710  0.73140  0.93210  1.0000 0.1868304321
C   C58       1.0  0.06290  0.26860  0.43210  1.0000 0.1868304321
C   C59       1.0  0.23140  0.56290  0.68210  1.0000 0.1868304321
C   C60       1.0  0.76860  0.43710  0.18210  1.0000 0.1868304321
C   C61       1.0  0.43710  0.76860  0.81790  1.0000 0.1868304321
C   C62       1.0  0.56290  0.23140  0.31790  1.0000 0.1868304321
C   C63       1.0  0.73140  0.93710  0.06790  1.0000 0.1868304321
C   C64       1.0  0.26860  0.06290  0.56790  1.0000 0.1868304321
N   N1        1.0  0.87748  0.73980  0.04460  1.0000 -0.3477207563
N   N2        1.0  0.12252  0.26020  0.54460  1.0000 -0.3477207563
N   N3        1.0  0.23980  0.62252  0.79460  1.0000 -0.3477207563
N   N4        1.0  0.76020  0.37748  0.29460  1.0000 -0.3477207563
N   N5        1.0  0.37748  0.76020  0.70540  1.0000 -0.3477207563
N   N6        1.0  0.62252  0.23980  0.20540  1.0000 -0.3477207563
N   N7        1.0  0.73980  0.87748  0.95540  1.0000 -0.3477207563
N   N8        1.0  0.26020  0.12252  0.45540  1.0000 -0.3477207563
N   N9        1.0  0.02090  0.73190  0.98740  1.0000 -0.2395406003
N   N10       1.0  0.97910  0.26810  0.48740  1.0000 -0.2395406003
N   N11       1.0  0.23190  0.47910  0.73740  1.0000 -0.2395406003
N   N12       1.0  0.76810  0.52090  0.23740  1.0000 -0.2395406003
N   N13       1.0  0.52090  0.76810  0.76260  1.0000 -0.2395406003
N   N14       1.0  0.47910  0.23190  0.26260  1.0000 -0.2395406003
N   N15       1.0  0.73190  0.02090  0.01260  1.0000 -0.2395406003
N   N16       1.0  0.26810  0.97910  0.51260  1.0000 -0.2395406003
O   O1        1.0  0.09966  0.76070  0.69520  1.0000 -0.5388603575
O   O2        1.0  0.90034  0.23930  0.19520  1.0000 -0.5388603575
O   O3        1.0  0.26070  0.40034  0.44520  1.0000 -0.5388603575
O   O4        1.0  0.73930  0.59966  0.94520  1.0000 -0.5388603575
O   O5        1.0  0.59966  0.73930  0.05480  1.0000 -0.5388603575
O   O6        1.0  0.40034  0.26070  0.55480  1.0000 -0.5388603575
O   O7        1.0  0.76070  0.09966  0.30480  1.0000 -0.5388603575
O   O8        1.0  0.23930  0.90034  0.80480  1.0000 -0.5388603575
O   O9        1.0  0.20412  0.75505  0.51530  1.0000 -0.5313314638
O   O10       1.0  0.79588  0.24495  0.01530  1.0000 -0.5313314638
O   O11       1.0  0.25505  0.29588  0.26530  1.0000 -0.5313314638
O   O12       1.0  0.74495  0.70412  0.76530  1.0000 -0.5313314638
O   O13       1.0  0.70412  0.74495  0.23470  1.0000 -0.5313314638
O   O14       1.0  0.29588  0.25505  0.73470  1.0000 -0.5313314638
O   O15       1.0  0.75505  0.20412  0.48470  1.0000 -0.5313314638
O   O16       1.0  0.24495  0.79588  0.98470  1.0000 -0.5313314638
