# DDEC6 charges by PACMAN v1.1 (https://github.com/mtap-research/PACMAN-charge/)
data_2007[Ni][pcu]3[ASR]3
_chemical_formula_sum              "Ni2 H48 C52 N14"
_cell_length_a       13.533
_cell_length_b       13.533
_cell_length_c       8.63
_cell_angle_alpha    82.964
_cell_angle_beta     97.036
_cell_angle_gamma    86.5866

_symmetry_space_group_name_H-M    "P 1"
_symmetry_Int_Tables_number       1

loop_
  _symmetry_equiv_pos_as_xyz
  'x, y, z'

loop_
  _atom_site_type_symbol
  _atom_site_label
  _atom_site_symmetry_multiplicity
  _atom_site_fract_x
  _atom_site_fract_y
  _atom_site_fract_z
  _atom_site_occupancy
  _atom_site_charge
Ni  Ni1       1.0  0.67710  0.67710  0.25000  1.0000 0.5848516358
Ni  Ni2       1.0  0.32290  0.32290  0.75000  1.0000 0.5848516358
H   H1        1.0  0.83960  0.74560  0.05570  1.0000 0.0898757923
H   H2        1.0  0.74560  0.83960  0.44430  1.0000 0.0898757923
H   H3        1.0  0.01940  0.73500  0.07570  1.0000 0.1190578781
H   H4        1.0  0.73500  0.01940  0.42430  1.0000 0.1190578781
H   H5        1.0  0.03850  0.60170  0.53250  1.0000 0.1190578781
H   H6        1.0  0.60170  0.03850  0.96750  1.0000 0.1190578781
H   H7        1.0  0.85930  0.60590  0.49540  1.0000 0.1008691538
H   H8        1.0  0.60590  0.85930  0.00460  1.0000 0.1008691538
H   H9        1.0  0.17820  0.69580  0.40360  1.0000 0.1082392216
H   H10       1.0  0.69580  0.17820  0.09640  1.0000 0.1082392216
H   H11       1.0  0.17760  0.59580  0.33320  1.0000 0.1190578781
H   H12       1.0  0.59580  0.17760  0.16680  1.0000 0.1190578781
H   H13       1.0  0.51000  0.81460  0.32650  1.0000 0.0898757923
H   H14       1.0  0.81460  0.51000  0.17350  1.0000 0.0898757923
H   H15       1.0  0.32740  0.82920  0.29860  1.0000 0.1190578781
H   H16       1.0  0.82920  0.32740  0.20140  1.0000 0.1190578781
H   H17       1.0  0.33390  0.57250  0.07830  1.0000 0.1275651848
H   H18       1.0  0.57250  0.33390  0.42170  1.0000 0.1275651848
H   H19       1.0  0.50290  0.55870  0.11550  1.0000 0.0898757923
H   H20       1.0  0.55870  0.50290  0.38450  1.0000 0.0898757923
H   H21       1.0  0.16550  0.77990  0.16700  1.0000 0.1082392216
H   H22       1.0  0.77990  0.16550  0.33300  1.0000 0.1082392216
H   H23       1.0  0.15750  0.68190  0.09160  1.0000 0.1008691538
H   H24       1.0  0.68190  0.15750  0.40840  1.0000 0.1008691538
H   H25       1.0  0.16040  0.25440  0.94430  1.0000 0.0898757923
H   H26       1.0  0.25440  0.16040  0.55570  1.0000 0.0898757923
H   H27       1.0  0.98060  0.26500  0.92430  1.0000 0.1190578781
H   H28       1.0  0.26500  0.98060  0.57570  1.0000 0.1190578781
H   H29       1.0  0.96150  0.39830  0.46750  1.0000 0.1190578781
H   H30       1.0  0.39830  0.96150  0.03250  1.0000 0.1190578781
H   H31       1.0  0.14070  0.39410  0.50460  1.0000 0.1008691538
H   H32       1.0  0.39410  0.14070  0.99540  1.0000 0.1008691538
H   H33       1.0  0.82180  0.30420  0.59640  1.0000 0.1082392216
H   H34       1.0  0.30420  0.82180  0.90360  1.0000 0.1082392216
H   H35       1.0  0.82240  0.40420  0.66680  1.0000 0.1190578781
H   H36       1.0  0.40420  0.82240  0.83320  1.0000 0.1190578781
H   H37       1.0  0.49000  0.18540  0.67350  1.0000 0.0898757923
H   H38       1.0  0.18540  0.49000  0.82650  1.0000 0.0898757923
H   H39       1.0  0.67260  0.17080  0.70140  1.0000 0.1190578781
H   H40       1.0  0.17080  0.67260  0.79860  1.0000 0.1190578781
H   H41       1.0  0.66610  0.42750  0.92170  1.0000 0.1275651848
H   H42       1.0  0.42750  0.66610  0.57830  1.0000 0.1275651848
H   H43       1.0  0.49710  0.44130  0.88450  1.0000 0.0898757923
H   H44       1.0  0.44130  0.49710  0.61550  1.0000 0.0898757923
H   H45       1.0  0.83450  0.22010  0.83300  1.0000 0.1082392216
H   H46       1.0  0.22010  0.83450  0.66700  1.0000 0.1082392216
H   H47       1.0  0.84250  0.31810  0.90840  1.0000 0.1008691538
H   H48       1.0  0.31810  0.84250  0.59160  1.0000 0.1008691538
C   C1        1.0  0.87700  0.71300  0.16200  1.0000 0.0898757923
C   C2        1.0  0.71300  0.87700  0.33800  1.0000 0.0898757923
C   C3        1.0  0.98510  0.71110  0.16800  1.0000 -0.2101089152
C   C4        1.0  0.71110  0.98510  0.33200  1.0000 -0.2101089152
C   C5        1.0  0.04100  0.66900  0.30400  1.0000 0.1431791319
C   C6        1.0  0.66900  0.04100  0.19600  1.0000 0.1431791319
C   C7        1.0  0.99600  0.62800  0.42600  1.0000 -0.2101089152
C   C8        1.0  0.62800  0.99600  0.07400  1.0000 -0.2101089152
C   C9        1.0  0.89410  0.63610  0.41200  1.0000 0.0379358029
C   C10       1.0  0.63610  0.89410  0.08800  1.0000 0.0379358029
C   C11       1.0  0.15000  0.66200  0.31200  1.0000 -0.2523964772
C   C12       1.0  0.66200  0.15000  0.18800  1.0000 -0.2523964772
C   C13       1.0  0.47000  0.76400  0.27400  1.0000 0.0834608806
C   C14       1.0  0.76400  0.47000  0.22600  1.0000 0.0834608806
C   C15       1.0  0.36100  0.77100  0.25900  1.0000 -0.2417211065
C   C16       1.0  0.77100  0.36100  0.24100  1.0000 -0.2417211065
C   C17       1.0  0.31100  0.69700  0.19000  1.0000 0.1486143751
C   C18       1.0  0.69700  0.31100  0.31000  1.0000 0.1486143751
C   C19       1.0  0.36400  0.62400  0.13500  1.0000 -0.1887760775
C   C20       1.0  0.62400  0.36400  0.36500  1.0000 -0.1887760775
C   C21       1.0  0.46400  0.62000  0.14800  1.0000 0.0517635031
C   C22       1.0  0.62000  0.46400  0.35200  1.0000 0.0517635031
C   C23       1.0  0.19400  0.71400  0.18400  1.0000 -0.2417211065
C   C24       1.0  0.71400  0.19400  0.31600  1.0000 -0.2417211065
C   C25       1.0  0.65410  0.65610  0.89100  1.0000 0.4484809993
C   C26       1.0  0.65610  0.65410  0.60900  1.0000 0.4484809993
C   C27       1.0  0.12300  0.28700  0.83800  1.0000 0.0898757923
C   C28       1.0  0.28700  0.12300  0.66200  1.0000 0.0898757923
C   C29       1.0  0.01490  0.28890  0.83200  1.0000 -0.2101089152
C   C30       1.0  0.28890  0.01490  0.66800  1.0000 -0.2101089152
C   C31       1.0  0.95900  0.33100  0.69600  1.0000 0.1431791319
C   C32       1.0  0.33100  0.95900  0.80400  1.0000 0.1431791319
C   C33       1.0  0.00400  0.37200  0.57400  1.0000 -0.2101089152
C   C34       1.0  0.37200  0.00400  0.92600  1.0000 -0.2101089152
C   C35       1.0  0.10590  0.36390  0.58800  1.0000 0.0379358029
C   C36       1.0  0.36390  0.10590  0.91200  1.0000 0.0379358029
C   C37       1.0  0.85000  0.33800  0.68800  1.0000 -0.2523964772
C   C38       1.0  0.33800  0.85000  0.81200  1.0000 -0.2523964772
C   C39       1.0  0.53000  0.23600  0.72600  1.0000 0.0834608806
C   C40       1.0  0.23600  0.53000  0.77400  1.0000 0.0834608806
C   C41       1.0  0.63900  0.22900  0.74100  1.0000 -0.2417211065
C   C42       1.0  0.22900  0.63900  0.75900  1.0000 -0.2417211065
C   C43       1.0  0.68900  0.30300  0.81000  1.0000 0.1486143751
C   C44       1.0  0.30300  0.68900  0.69000  1.0000 0.1486143751
C   C45       1.0  0.63600  0.37600  0.86500  1.0000 -0.1887760775
C   C46       1.0  0.37600  0.63600  0.63500  1.0000 -0.1887760775
C   C47       1.0  0.53600  0.38000  0.85200  1.0000 0.0517635031
C   C48       1.0  0.38000  0.53600  0.64800  1.0000 0.0517635031
C   C49       1.0  0.80600  0.28600  0.81600  1.0000 -0.2417211065
C   C50       1.0  0.28600  0.80600  0.68400  1.0000 -0.2417211065
C   C51       1.0  0.34590  0.34390  0.10900  1.0000 0.4484809993
C   C52       1.0  0.34390  0.34590  0.39100  1.0000 0.4484809993
N   N1        1.0  0.83430  0.67450  0.28000  1.0000 -0.2167698609
N   N2        1.0  0.67450  0.83430  0.22000  1.0000 -0.2167698609
N   N3        1.0  0.51620  0.68800  0.22100  1.0000 -0.2261498736
N   N4        1.0  0.68800  0.51620  0.27900  1.0000 -0.2261498736
N   N5        1.0  0.66960  0.67180  0.01200  1.0000 -0.5282507406
N   N6        1.0  0.67180  0.66960  0.48800  1.0000 -0.5282507406
N   N7        1.0  0.62400  0.62400  0.75000  1.0000 -0.5427481102
N   N8        1.0  0.16570  0.32550  0.72000  1.0000 -0.2167698609
N   N9        1.0  0.32550  0.16570  0.78000  1.0000 -0.2167698609
N   N10       1.0  0.48380  0.31200  0.77900  1.0000 -0.2261498736
N   N11       1.0  0.31200  0.48380  0.72100  1.0000 -0.2261498736
N   N12       1.0  0.33040  0.32820  0.98800  1.0000 -0.5282507406
N   N13       1.0  0.32820  0.33040  0.51200  1.0000 -0.5282507406
N   N14       1.0  0.37600  0.37600  0.25000  1.0000 -0.5427481102
