# DDEC6 charges by PACMAN v1.1 (https://github.com/mtap-research/PACMAN-charge/)
data_2009[Zn][dia]3[ASR]4
_chemical_formula_sum              "Zn2 H36 C52 N4 O8"
_cell_length_a       14.702
_cell_length_b       14.702
_cell_length_c       17.5045
_cell_angle_alpha    77.767
_cell_angle_beta     102.233
_cell_angle_gamma    155.565

_symmetry_space_group_name_H-M    "P 1"
_symmetry_Int_Tables_number       1

loop_
  _symmetry_equiv_pos_as_xyz
  'x, y, z'

loop_
  _atom_site_type_symbol
  _atom_site_label
  _atom_site_symmetry_multiplicity
  _atom_site_fract_x
  _atom_site_fract_y
  _atom_site_fract_z
  _atom_site_occupancy
  _atom_site_charge
Zn  Zn1       1.0  0.56352  0.56352  0.25000  1.0000 0.7339443254
Zn  Zn2       1.0  0.43648  0.43648  0.75000  1.0000 0.7339443254
H   H1        1.0  0.16890  0.97830  0.36200  1.0000 0.117332833
H   H2        1.0  0.97830  0.16890  0.13800  1.0000 0.1113317728
H   H3        1.0  0.83110  0.02170  0.63800  1.0000 0.117332833
H   H4        1.0  0.02170  0.83110  0.86200  1.0000 0.1113317728
H   H5        1.0  0.43080  0.11380  0.43120  1.0000 0.1113317728
H   H6        1.0  0.11380  0.43080  0.06880  1.0000 0.1113317728
H   H7        1.0  0.56920  0.88620  0.56880  1.0000 0.1113317728
H   H8        1.0  0.88620  0.56920  0.93120  1.0000 0.1113317728
H   H9        1.0  0.02940  0.53740  0.41520  1.0000 0.1113317728
H   H10       1.0  0.53740  0.02940  0.08480  1.0000 0.1113317728
H   H11       1.0  0.97060  0.46260  0.58480  1.0000 0.1113317728
H   H12       1.0  0.46260  0.97060  0.91520  1.0000 0.1113317728
H   H13       1.0  0.77010  0.40250  0.34500  1.0000 0.117332833
H   H14       1.0  0.40250  0.77010  0.15500  1.0000 0.117332833
H   H15       1.0  0.22990  0.59750  0.65500  1.0000 0.117332833
H   H16       1.0  0.59750  0.22990  0.84500  1.0000 0.117332833
H   H17       1.0  0.38280  0.82180  0.48110  1.0000 0.1113317728
H   H18       1.0  0.82180  0.38280  0.01890  1.0000 0.1113317728
H   H19       1.0  0.61720  0.17820  0.51890  1.0000 0.1113317728
H   H20       1.0  0.17820  0.61720  0.98110  1.0000 0.1113317728
H   H21       1.0  0.20940  0.11100  0.21500  1.0000 0.117332833
H   H22       1.0  0.11100  0.20940  0.28500  1.0000 0.117332833
H   H23       1.0  0.79060  0.88900  0.78500  1.0000 0.117332833
H   H24       1.0  0.88900  0.79060  0.71500  1.0000 0.117332833
H   H25       1.0  0.96930  0.87150  0.11600  1.0000 0.1332460257
H   H26       1.0  0.87150  0.96930  0.38400  1.0000 0.1332460257
H   H27       1.0  0.03070  0.12850  0.88400  1.0000 0.1332460257
H   H28       1.0  0.12850  0.03070  0.61600  1.0000 0.1332460257
H   H29       1.0  0.23410  0.33490  0.97830  1.0000 0.1332460257
H   H30       1.0  0.33490  0.23410  0.52170  1.0000 0.1332460257
H   H31       1.0  0.76590  0.66510  0.02170  1.0000 0.1332460257
H   H32       1.0  0.66510  0.76590  0.47830  1.0000 0.1332460257
H   H33       1.0  0.48190  0.56570  0.07970  1.0000 0.1113317728
H   H34       1.0  0.56570  0.48190  0.42030  1.0000 0.1113317728
H   H35       1.0  0.51810  0.43430  0.92030  1.0000 0.1113317728
H   H36       1.0  0.43430  0.51810  0.57970  1.0000 0.1113317728
C   C1        1.0  0.77030  0.58790  0.30370  1.0000 0.5322825449
C   C2        1.0  0.58790  0.77030  0.19630  1.0000 0.5322825449
C   C3        1.0  0.22970  0.41210  0.69630  1.0000 0.5322825449
C   C4        1.0  0.41210  0.22970  0.80370  1.0000 0.5322825449
C   C5        1.0  0.94330  0.67790  0.34630  1.0000 -0.0308509067
C   C6        1.0  0.67790  0.94330  0.15370  1.0000 -0.0308509067
C   C7        1.0  0.05670  0.32210  0.65370  1.0000 -0.0308509067
C   C8        1.0  0.32210  0.05670  0.84630  1.0000 -0.0308509067
C   C9        1.0  0.14050  0.88910  0.37260  1.0000 -0.0929281203
C   C10       1.0  0.88910  0.14050  0.12740  1.0000 -0.0929281203
C   C11       1.0  0.85950  0.11090  0.62740  1.0000 -0.0929281203
C   C12       1.0  0.11090  0.85950  0.87260  1.0000 -0.0929281203
C   C13       1.0  0.29760  0.97020  0.41480  1.0000 -0.1395511454
C   C14       1.0  0.97020  0.29760  0.08520  1.0000 -0.1395511454
C   C15       1.0  0.70240  0.02980  0.58520  1.0000 -0.1395511454
C   C16       1.0  0.02980  0.70240  0.91480  1.0000 -0.1395511454
C   C17       1.0  0.25670  0.83850  0.43260  1.0000 0.117332833
C   C18       1.0  0.83850  0.25670  0.06740  1.0000 0.117332833
C   C19       1.0  0.74330  0.16150  0.56740  1.0000 0.117332833
C   C20       1.0  0.16150  0.74330  0.93260  1.0000 0.117332833
C   C21       1.0  0.05760  0.62660  0.40480  1.0000 -0.153477521
C   C22       1.0  0.62660  0.05760  0.09520  1.0000 -0.153477521
C   C23       1.0  0.94240  0.37340  0.59520  1.0000 -0.153477521
C   C24       1.0  0.37340  0.94240  0.90480  1.0000 -0.153477521
C   C25       1.0  0.90160  0.54480  0.36250  1.0000 -0.104320736
C   C26       1.0  0.54480  0.90160  0.13750  1.0000 -0.104320736
C   C27       1.0  0.09840  0.45520  0.63750  1.0000 -0.104320736
C   C28       1.0  0.45520  0.09840  0.86250  1.0000 -0.104320736
C   C29       1.0  0.41220  0.91100  0.47990  1.0000 -0.1395511454
C   C30       1.0  0.91100  0.41220  0.02010  1.0000 -0.1395511454
C   C31       1.0  0.58780  0.08900  0.52010  1.0000 -0.1395511454
C   C32       1.0  0.08900  0.58780  0.97990  1.0000 -0.1395511454
C   C33       1.0  0.21470  0.15650  0.16650  1.0000 0.0920350558
C   C34       1.0  0.15650  0.21470  0.33350  1.0000 0.0920350558
C   C35       1.0  0.78530  0.84350  0.83350  1.0000 0.0920350558
C   C36       1.0  0.84350  0.78530  0.66650  1.0000 0.0920350558
C   C37       1.0  0.07030  0.01150  0.10700  1.0000 -0.1837315945
C   C38       1.0  0.01150  0.07030  0.39300  1.0000 -0.1837315945
C   C39       1.0  0.92970  0.98850  0.89300  1.0000 -0.1837315945
C   C40       1.0  0.98850  0.92970  0.60700  1.0000 -0.1837315945
C   C41       1.0  0.07570  0.07570  0.03270  1.0000 0.1113317728
C   C42       1.0  0.07570  0.07570  0.46730  1.0000 0.1113317728
C   C43       1.0  0.92430  0.92430  0.96730  1.0000 0.1113317728
C   C44       1.0  0.92430  0.92430  0.53270  1.0000 0.1113317728
C   C45       1.0  0.22820  0.28560  0.02500  1.0000 -0.2122527374
C   C46       1.0  0.28560  0.22820  0.47500  1.0000 -0.2122527374
C   C47       1.0  0.77180  0.71440  0.97500  1.0000 -0.2122527374
C   C48       1.0  0.71440  0.77180  0.52500  1.0000 -0.2122527374
C   C49       1.0  0.37140  0.42080  0.08790  1.0000 0.0920350558
C   C50       1.0  0.42080  0.37140  0.41210  1.0000 0.0920350558
C   C51       1.0  0.62860  0.57920  0.91210  1.0000 0.0920350558
C   C52       1.0  0.57920  0.62860  0.58790  1.0000 0.0920350558
N   N1        1.0  0.36350  0.36090  0.15800  1.0000 -0.2309363572
N   N2        1.0  0.36090  0.36350  0.34200  1.0000 -0.2309363572
N   N3        1.0  0.63650  0.63910  0.84200  1.0000 -0.2309363572
N   N4        1.0  0.63910  0.63650  0.65800  1.0000 -0.2309363572
O   O1        1.0  0.81983  0.71817  0.29110  1.0000 -0.5426031364
O   O2        1.0  0.71817  0.81983  0.20890  1.0000 -0.5426031364
O   O3        1.0  0.18017  0.28183  0.70890  1.0000 -0.5426031364
O   O4        1.0  0.28183  0.18017  0.79110  1.0000 -0.5426031364
O   O5        1.0  0.58760  0.39360  0.28680  1.0000 -0.5426031364
O   O6        1.0  0.39360  0.58760  0.21320  1.0000 -0.5426031364
O   O7        1.0  0.41240  0.60640  0.71320  1.0000 -0.5426031364
O   O8        1.0  0.60640  0.41240  0.78680  1.0000 -0.5426031364
