# DDEC6 charges by PACMAN v1.1 (https://github.com/mtap-research/PACMAN-charge/)
data_2011[Zn][pcu]3[ASR]16
_chemical_formula_sum              "Zn4 H48 C72 N4 O16"
_cell_length_a       13.0133
_cell_length_b       13.0133
_cell_length_c       13.922
_cell_angle_alpha    73.6268
_cell_angle_beta     106.373
_cell_angle_gamma    88.7266

_symmetry_space_group_name_H-M    "P 1"
_symmetry_Int_Tables_number       1

loop_
  _symmetry_equiv_pos_as_xyz
  'x, y, z'

loop_
  _atom_site_type_symbol
  _atom_site_label
  _atom_site_symmetry_multiplicity
  _atom_site_fract_x
  _atom_site_fract_y
  _atom_site_fract_z
  _atom_site_occupancy
  _atom_site_charge
Zn  Zn1       1.0  0.13322  0.18750  0.13338  1.0000 0.8530301324
Zn  Zn2       1.0  0.18750  0.13322  0.36662  1.0000 0.8530301324
Zn  Zn3       1.0  0.86678  0.81250  0.86662  1.0000 0.8530301324
Zn  Zn4       1.0  0.81250  0.86678  0.63338  1.0000 0.8530301324
H   H1        1.0  0.10070  0.53710  0.06130  1.0000 0.1278361438
H   H2        1.0  0.53710  0.10070  0.43870  1.0000 0.1278361438
H   H3        1.0  0.10080  0.71540  0.04880  1.0000 0.1205802514
H   H4        1.0  0.71540  0.10080  0.45120  1.0000 0.1205802514
H   H5        1.0  0.19230  0.45570  0.37750  1.0000 0.1278361438
H   H6        1.0  0.45570  0.19230  0.12250  1.0000 0.1278361438
H   H7        1.0  0.13910  0.85890  0.13850  1.0000 0.1205802514
H   H8        1.0  0.85890  0.13910  0.36150  1.0000 0.1205802514
H   H9        1.0  0.07600  0.04700  0.00330  1.0000 0.1081422476
H   H10       1.0  0.04700  0.07600  0.49670  1.0000 0.1081422476
H   H11       1.0  0.08940  0.01960  0.85160  1.0000 0.1404624267
H   H12       1.0  0.01960  0.08940  0.64840  1.0000 0.1404624267
H   H13       1.0  0.20130  0.30930  0.77920  1.0000 0.1404624267
H   H14       1.0  0.30930  0.20130  0.72080  1.0000 0.1404624267
H   H15       1.0  0.12730  0.40670  0.94950  1.0000 0.1600056163
H   H16       1.0  0.40670  0.12730  0.55050  1.0000 0.1600056163
H   H17       1.0  0.22050  0.41670  0.89400  1.0000 0.1498691908
H   H18       1.0  0.41670  0.22050  0.60600  1.0000 0.1498691908
H   H19       1.0  0.24670  0.34990  0.01540  1.0000 0.1663222483
H   H20       1.0  0.34990  0.24670  0.48460  1.0000 0.1663222483
H   H21       1.0  0.21420  0.78000  0.45360  1.0000 0.1205802514
H   H22       1.0  0.78000  0.21420  0.04640  1.0000 0.1205802514
H   H23       1.0  0.21350  0.59830  0.46450  1.0000 0.1205802514
H   H24       1.0  0.59830  0.21350  0.03550  1.0000 0.1205802514
H   H25       1.0  0.89930  0.46290  0.93870  1.0000 0.1278361438
H   H26       1.0  0.46290  0.89930  0.56130  1.0000 0.1278361438
H   H27       1.0  0.89920  0.28460  0.95120  1.0000 0.1205802514
H   H28       1.0  0.28460  0.89920  0.54880  1.0000 0.1205802514
H   H29       1.0  0.80770  0.54430  0.62250  1.0000 0.1278361438
H   H30       1.0  0.54430  0.80770  0.87750  1.0000 0.1278361438
H   H31       1.0  0.86090  0.14110  0.86150  1.0000 0.1205802514
H   H32       1.0  0.14110  0.86090  0.63850  1.0000 0.1205802514
H   H33       1.0  0.92400  0.95300  0.99670  1.0000 0.1081422476
H   H34       1.0  0.95300  0.92400  0.50330  1.0000 0.1081422476
H   H35       1.0  0.91060  0.98040  0.14840  1.0000 0.1404624267
H   H36       1.0  0.98040  0.91060  0.35160  1.0000 0.1404624267
H   H37       1.0  0.79870  0.69070  0.22080  1.0000 0.1404624267
H   H38       1.0  0.69070  0.79870  0.27920  1.0000 0.1404624267
H   H39       1.0  0.87270  0.59330  0.05050  1.0000 0.1600056163
H   H40       1.0  0.59330  0.87270  0.44950  1.0000 0.1600056163
H   H41       1.0  0.77950  0.58330  0.10600  1.0000 0.1498691908
H   H42       1.0  0.58330  0.77950  0.39400  1.0000 0.1498691908
H   H43       1.0  0.75330  0.65010  0.98460  1.0000 0.1663222483
H   H44       1.0  0.65010  0.75330  0.51540  1.0000 0.1663222483
H   H45       1.0  0.78580  0.22000  0.54640  1.0000 0.1205802514
H   H46       1.0  0.22000  0.78580  0.95360  1.0000 0.1205802514
H   H47       1.0  0.78650  0.40170  0.53550  1.0000 0.1205802514
H   H48       1.0  0.40170  0.78650  0.96450  1.0000 0.1205802514
C   C1        1.0  0.15020  0.36120  0.22930  1.0000 0.5857595673
C   C2        1.0  0.36120  0.15020  0.27070  1.0000 0.5857595673
C   C3        1.0  0.14830  0.47790  0.22220  1.0000 -0.02713331
C   C4        1.0  0.47790  0.14830  0.27780  1.0000 -0.02713331
C   C5        1.0  0.12010  0.55810  0.12360  1.0000 -0.1076698301
C   C6        1.0  0.55810  0.12010  0.37640  1.0000 -0.1076698301
C   C7        1.0  0.12040  0.66320  0.11610  1.0000 -0.1390780525
C   C8        1.0  0.66320  0.12040  0.38390  1.0000 -0.1390780525
C   C9        1.0  0.17470  0.50910  0.31100  1.0000 -0.152792109
C   C10       1.0  0.50910  0.17470  0.18900  1.0000 -0.152792109
C   C11       1.0  0.14950  0.69710  0.20750  1.0000 0.0812323412
C   C12       1.0  0.69710  0.14950  0.29250  1.0000 0.0812323412
C   C13       1.0  0.15200  0.80540  0.20450  1.0000 -0.1569496857
C   C14       1.0  0.80540  0.15200  0.29550  1.0000 -0.1569496857
C   C15       1.0  0.10180  0.10120  0.95700  1.0000 0.0738900324
C   C16       1.0  0.10120  0.10180  0.54300  1.0000 0.0738900324
C   C17       1.0  0.10940  0.08420  0.86720  1.0000 -0.1938992271
C   C18       1.0  0.08420  0.10940  0.63280  1.0000 -0.1938992271
C   C19       1.0  0.14700  0.16260  0.79860  1.0000 0.1205802514
C   C20       1.0  0.16260  0.14700  0.70140  1.0000 0.1205802514
C   C21       1.0  0.17470  0.25490  0.82450  1.0000 -0.2513941952
C   C22       1.0  0.25490  0.17470  0.67550  1.0000 -0.2513941952
C   C23       1.0  0.16390  0.26890  0.91670  1.0000 0.3447657994
C   C24       1.0  0.26890  0.16390  0.58330  1.0000 0.3447657994
C   C25       1.0  0.19210  0.36930  0.94650  1.0000 -0.5067040453
C   C26       1.0  0.36930  0.19210  0.55350  1.0000 -0.5067040453
C   C27       1.0  0.17250  0.83690  0.29330  1.0000 -0.0248194791
C   C28       1.0  0.83690  0.17250  0.20670  1.0000 -0.0248194791
C   C29       1.0  0.16930  0.95450  0.28580  1.0000 0.5765681735
C   C30       1.0  0.95450  0.16930  0.21420  1.0000 0.5765681735
C   C31       1.0  0.19750  0.75890  0.39140  1.0000 -0.1186689378
C   C32       1.0  0.75890  0.19750  0.10860  1.0000 -0.1186689378
C   C33       1.0  0.19800  0.65080  0.39770  1.0000 -0.1569496857
C   C34       1.0  0.65080  0.19800  0.10230  1.0000 -0.1569496857
C   C35       1.0  0.17610  0.61730  0.30670  1.0000 0.0812323412
C   C36       1.0  0.61730  0.17610  0.19330  1.0000 0.0812323412
C   C37       1.0  0.84980  0.63880  0.77070  1.0000 0.5857595673
C   C38       1.0  0.63880  0.84980  0.72930  1.0000 0.5857595673
C   C39       1.0  0.85170  0.52210  0.77780  1.0000 -0.02713331
C   C40       1.0  0.52210  0.85170  0.72220  1.0000 -0.02713331
C   C41       1.0  0.87990  0.44190  0.87640  1.0000 -0.1076698301
C   C42       1.0  0.44190  0.87990  0.62360  1.0000 -0.1076698301
C   C43       1.0  0.87960  0.33680  0.88390  1.0000 -0.1390780525
C   C44       1.0  0.33680  0.87960  0.61610  1.0000 -0.1390780525
C   C45       1.0  0.82530  0.49090  0.68900  1.0000 -0.152792109
C   C46       1.0  0.49090  0.82530  0.81100  1.0000 -0.152792109
C   C47       1.0  0.85050  0.30290  0.79250  1.0000 0.0812323412
C   C48       1.0  0.30290  0.85050  0.70750  1.0000 0.0812323412
C   C49       1.0  0.84800  0.19460  0.79550  1.0000 -0.1569496857
C   C50       1.0  0.19460  0.84800  0.70450  1.0000 -0.1569496857
C   C51       1.0  0.89820  0.89880  0.04300  1.0000 0.0738900324
C   C52       1.0  0.89880  0.89820  0.45700  1.0000 0.0738900324
C   C53       1.0  0.89060  0.91580  0.13280  1.0000 -0.1938992271
C   C54       1.0  0.91580  0.89060  0.36720  1.0000 -0.1938992271
C   C55       1.0  0.85300  0.83740  0.20140  1.0000 0.1205802514
C   C56       1.0  0.83740  0.85300  0.29860  1.0000 0.1205802514
C   C57       1.0  0.82530  0.74510  0.17550  1.0000 -0.2513941952
C   C58       1.0  0.74510  0.82530  0.32450  1.0000 -0.2513941952
C   C59       1.0  0.83610  0.73110  0.08330  1.0000 0.3447657994
C   C60       1.0  0.73110  0.83610  0.41670  1.0000 0.3447657994
C   C61       1.0  0.80790  0.63070  0.05350  1.0000 -0.5067040453
C   C62       1.0  0.63070  0.80790  0.44650  1.0000 -0.5067040453
C   C63       1.0  0.82750  0.16310  0.70670  1.0000 -0.0248194791
C   C64       1.0  0.16310  0.82750  0.79330  1.0000 -0.0248194791
C   C65       1.0  0.83070  0.04550  0.71420  1.0000 0.5765681735
C   C66       1.0  0.04550  0.83070  0.78580  1.0000 0.5765681735
C   C67       1.0  0.80250  0.24110  0.60860  1.0000 -0.1186689378
C   C68       1.0  0.24110  0.80250  0.89140  1.0000 -0.1186689378
C   C69       1.0  0.80200  0.34920  0.60230  1.0000 -0.1569496857
C   C70       1.0  0.34920  0.80200  0.89770  1.0000 -0.1569496857
C   C71       1.0  0.82390  0.38270  0.69330  1.0000 0.0812323412
C   C72       1.0  0.38270  0.82390  0.80670  1.0000 0.0812323412
N   N1        1.0  0.12910  0.19110  0.98410  1.0000 -0.278952604
N   N2        1.0  0.19110  0.12910  0.51590  1.0000 -0.278952604
N   N3        1.0  0.87090  0.80890  0.01590  1.0000 -0.278952604
N   N4        1.0  0.80890  0.87090  0.48410  1.0000 -0.278952604
O   O1        1.0  0.11111  0.33651  0.14540  1.0000 -0.5480550705
O   O2        1.0  0.33651  0.11111  0.35460  1.0000 -0.5480550705
O   O3        1.0  0.19200  0.29480  0.31890  1.0000 -0.5480550705
O   O4        1.0  0.29480  0.19200  0.18110  1.0000 -0.5480550705
O   O5        1.0  0.16968  0.97768  0.36810  1.0000 -0.5480550705
O   O6        1.0  0.97768  0.16968  0.13190  1.0000 -0.5480550705
O   O7        1.0  0.16440  0.02120  0.19880  1.0000 -0.5611397156
O   O8        1.0  0.02120  0.16440  0.30120  1.0000 -0.5611397156
O   O9        1.0  0.88889  0.66349  0.85460  1.0000 -0.5480550705
O   O10       1.0  0.66349  0.88889  0.64540  1.0000 -0.5480550705
O   O11       1.0  0.80800  0.70520  0.68110  1.0000 -0.5480550705
O   O12       1.0  0.70520  0.80800  0.81890  1.0000 -0.5480550705
O   O13       1.0  0.83032  0.02232  0.63190  1.0000 -0.5480550705
O   O14       1.0  0.02232  0.83032  0.86810  1.0000 -0.5480550705
O   O15       1.0  0.83560  0.97880  0.80120  1.0000 -0.5611397156
O   O16       1.0  0.97880  0.83560  0.69880  1.0000 -0.5611397156
