# DDEC6 charges by PACMAN v1.1 (https://github.com/mtap-research/PACMAN-charge/)
data_2008[Zn][sqc]3[ASR]1
_chemical_formula_sum              "Zn4 H28 C48 O20"
_cell_length_a       12.3416
_cell_length_b       12.3416
_cell_length_c       7.6238
_cell_angle_alpha    85.84
_cell_angle_beta     94.16
_cell_angle_gamma    96.3389

_symmetry_space_group_name_H-M    "P 1"
_symmetry_Int_Tables_number       1

loop_
  _symmetry_equiv_pos_as_xyz
  'x, y, z'

loop_
  _atom_site_type_symbol
  _atom_site_label
  _atom_site_symmetry_multiplicity
  _atom_site_fract_x
  _atom_site_fract_y
  _atom_site_fract_z
  _atom_site_occupancy
  _atom_site_charge
Zn  Zn1       1.0  0.70278  0.23478  0.43682  1.0000 0.9598896652
Zn  Zn2       1.0  0.23478  0.70278  0.06318  1.0000 0.9598896652
Zn  Zn3       1.0  0.29722  0.76522  0.56318  1.0000 0.9598896652
Zn  Zn4       1.0  0.76522  0.29722  0.93682  1.0000 0.9598896652
H   H1        1.0  0.54290  0.94710  0.71080  1.0000 0.1309844255
H   H2        1.0  0.94710  0.54290  0.78920  1.0000 0.1309844255
H   H3        1.0  0.45710  0.05290  0.28920  1.0000 0.1309844255
H   H4        1.0  0.05290  0.45710  0.21080  1.0000 0.1309844255
H   H5        1.0  0.56510  0.79650  0.19610  1.0000 0.1309844255
H   H6        1.0  0.79650  0.56510  0.30390  1.0000 0.1309844255
H   H7        1.0  0.43490  0.20350  0.80390  1.0000 0.1309844255
H   H8        1.0  0.20350  0.43490  0.69610  1.0000 0.1309844255
H   H9        1.0  0.78320  0.05380  0.06650  1.0000 0.1423801444
H   H10       1.0  0.05380  0.78320  0.43350  1.0000 0.1423801444
H   H11       1.0  0.21680  0.94620  0.93350  1.0000 0.1423801444
H   H12       1.0  0.94620  0.21680  0.56650  1.0000 0.1423801444
H   H13       1.0  0.63580  0.85960  0.48400  1.0000 0.1137855375
H   H14       1.0  0.85960  0.63580  0.01600  1.0000 0.1137855375
H   H15       1.0  0.36420  0.14040  0.51600  1.0000 0.1137855375
H   H16       1.0  0.14040  0.36420  0.98400  1.0000 0.1137855375
H   H17       1.0  0.70100  0.77060  0.41380  1.0000 0.1039647311
H   H18       1.0  0.77060  0.70100  0.08620  1.0000 0.1039647311
H   H19       1.0  0.29900  0.22940  0.58620  1.0000 0.1039647311
H   H20       1.0  0.22940  0.29900  0.91380  1.0000 0.1039647311
H   H21       1.0  0.87910  0.99550  0.51270  1.0000 0.1197442487
H   H22       1.0  0.99550  0.87910  0.98730  1.0000 0.1197442487
H   H23       1.0  0.12090  0.00450  0.48730  1.0000 0.1197442487
H   H24       1.0  0.00450  0.12090  0.01270  1.0000 0.1197442487
H   H25       1.0  0.00880  0.00880  0.75000  1.0000 0.1137855375
H   H26       1.0  0.99120  0.99120  0.25000  1.0000 0.1137855375
H   H27       1.0  0.72670  0.72670  0.75000  1.0000 0.1309844255
H   H28       1.0  0.27330  0.27330  0.25000  1.0000 0.1309844255
C   C1        1.0  0.66770  0.01570  0.87080  1.0000 -0.0158449281
C   C2        1.0  0.01570  0.66770  0.62920  1.0000 -0.0158449281
C   C3        1.0  0.33230  0.98430  0.12920  1.0000 -0.0158449281
C   C4        1.0  0.98430  0.33230  0.37080  1.0000 -0.0158449281
C   C5        1.0  0.57730  0.94190  0.82320  1.0000 -0.1546538063
C   C6        1.0  0.94190  0.57730  0.67680  1.0000 -0.1546538063
C   C7        1.0  0.42270  0.05810  0.17680  1.0000 -0.1546538063
C   C8        1.0  0.05810  0.42270  0.32320  1.0000 -0.1546538063
C   C9        1.0  0.54100  0.86200  0.94610  1.0000 0.0057270815
C   C10       1.0  0.86200  0.54100  0.55390  1.0000 0.0057270815
C   C11       1.0  0.45900  0.13800  0.05390  1.0000 0.0057270815
C   C12       1.0  0.13800  0.45900  0.44610  1.0000 0.0057270815
C   C13       1.0  0.59170  0.85090  0.11450  1.0000 -0.255842492
C   C14       1.0  0.85090  0.59170  0.38550  1.0000 -0.255842492
C   C15       1.0  0.40830  0.14910  0.88550  1.0000 -0.255842492
C   C16       1.0  0.14910  0.40830  0.61450  1.0000 -0.255842492
C   C17       1.0  0.68250  0.92270  0.15810  1.0000 0.2669034451
C   C18       1.0  0.92270  0.68250  0.34190  1.0000 0.2669034451
C   C19       1.0  0.31750  0.07730  0.84190  1.0000 0.2669034451
C   C20       1.0  0.07730  0.31750  0.65810  1.0000 0.2669034451
C   C21       1.0  0.72200  0.00600  0.03680  1.0000 -0.230680693
C   C22       1.0  0.00600  0.72200  0.46320  1.0000 -0.230680693
C   C23       1.0  0.27800  0.99400  0.96320  1.0000 -0.230680693
C   C24       1.0  0.99400  0.27800  0.53680  1.0000 -0.230680693
C   C25       1.0  0.70630  0.10690  0.74350  1.0000 0.5719682127
C   C26       1.0  0.10690  0.70630  0.75650  1.0000 0.5719682127
C   C27       1.0  0.29370  0.89310  0.25650  1.0000 0.5719682127
C   C28       1.0  0.89310  0.29370  0.24350  1.0000 0.5719682127
C   C29       1.0  0.70690  0.84470  0.45100  1.0000 -0.0641179942
C   C30       1.0  0.84470  0.70690  0.04900  1.0000 -0.0641179942
C   C31       1.0  0.29310  0.15530  0.54900  1.0000 -0.0641179942
C   C32       1.0  0.15530  0.29310  0.95100  1.0000 -0.0641179942
C   C33       1.0  0.79120  0.85860  0.60550  1.0000 0.1039647311
C   C34       1.0  0.85860  0.79120  0.89450  1.0000 0.1039647311
C   C35       1.0  0.20880  0.14140  0.39450  1.0000 0.1039647311
C   C36       1.0  0.14140  0.20880  0.10550  1.0000 0.1039647311
C   C37       1.0  0.87470  0.94370  0.60740  1.0000 -0.1618465931
C   C38       1.0  0.94370  0.87470  0.89260  1.0000 -0.1618465931
C   C39       1.0  0.12530  0.05630  0.39260  1.0000 -0.1618465931
C   C40       1.0  0.05630  0.12530  0.10740  1.0000 -0.1618465931
C   C41       1.0  0.95230  0.95230  0.75000  1.0000 -0.0821876973
C   C42       1.0  0.04770  0.04770  0.25000  1.0000 -0.0821876973
C   C43       1.0  0.78320  0.78320  0.75000  1.0000 -0.2179519982
C   C44       1.0  0.21680  0.21680  0.25000  1.0000 -0.2179519982
C   C45       1.0  0.44120  0.78500  0.89630  1.0000 0.6028723865
C   C46       1.0  0.78500  0.44120  0.60370  1.0000 0.6028723865
C   C47       1.0  0.55880  0.21500  0.10370  1.0000 0.6028723865
C   C48       1.0  0.21500  0.55880  0.39630  1.0000 0.6028723865
O   O1        1.0  0.65866  0.10894  0.59030  1.0000 -0.5229325146
O   O2        1.0  0.10894  0.65866  0.90970  1.0000 -0.5229325146
O   O3        1.0  0.34134  0.89106  0.40970  1.0000 -0.5229325146
O   O4        1.0  0.89106  0.34134  0.09030  1.0000 -0.5229325146
O   O5        1.0  0.78188  0.17824  0.78720  1.0000 -0.5737491697
O   O6        1.0  0.17824  0.78188  0.71280  1.0000 -0.5737491697
O   O7        1.0  0.21812  0.82176  0.21280  1.0000 -0.5737491697
O   O8        1.0  0.82176  0.21812  0.28720  1.0000 -0.5737491697
O   O9        1.0  0.42100  0.77380  0.73630  1.0000 -0.5281458944
O   O10       1.0  0.77380  0.42100  0.76370  1.0000 -0.5281458944
O   O11       1.0  0.57900  0.22620  0.26370  1.0000 -0.5281458944
O   O12       1.0  0.22620  0.57900  0.23630  1.0000 -0.5281458944
O   O13       1.0  0.38770  0.73872  0.01980  1.0000 -0.5558234901
O   O14       1.0  0.73872  0.38770  0.48020  1.0000 -0.5558234901
O   O15       1.0  0.61230  0.26128  0.98020  1.0000 -0.5558234901
O   O16       1.0  0.26128  0.61230  0.51980  1.0000 -0.5558234901
O   O17       1.0  0.74356  0.92028  0.31320  1.0000 -0.1618465931
O   O18       1.0  0.92028  0.74356  0.18680  1.0000 -0.1618465931
O   O19       1.0  0.25644  0.07972  0.68680  1.0000 -0.1618465931
O   O20       1.0  0.07972  0.25644  0.81320  1.0000 -0.1618465931
