# DDEC6 charges by PACMAN v1.1 (https://github.com/mtap-research/PACMAN-charge/)
data_2006[Mg][dia]3[ASR]2
_chemical_formula_sum              "Mg12 H24 C24 O48"
_cell_length_a       11.307
_cell_length_b       9.8568
_cell_length_c       18.3527
_cell_angle_alpha    90
_cell_angle_beta     126.648
_cell_angle_gamma    90

_symmetry_space_group_name_H-M    "P 1"
_symmetry_Int_Tables_number       1

loop_
  _symmetry_equiv_pos_as_xyz
  'x, y, z'

loop_
  _atom_site_type_symbol
  _atom_site_label
  _atom_site_symmetry_multiplicity
  _atom_site_fract_x
  _atom_site_fract_y
  _atom_site_fract_z
  _atom_site_occupancy
  _atom_site_charge
Mg  Mg1       1.0  0.62105  0.42238  0.36462  1.0000 1.3099635888
Mg  Mg2       1.0  0.37895  0.92238  0.13538  1.0000 1.3099635888
Mg  Mg3       1.0  0.37895  0.57762  0.63538  1.0000 1.3099635888
Mg  Mg4       1.0  0.62105  0.07762  0.86462  1.0000 1.3099635888
Mg  Mg5       1.0  0.50000  0.50000  0.50000  1.0000 1.2931061435
Mg  Mg6       1.0  0.50000  0.00000  0.00000  1.0000 1.2931061435
Mg  Mg7       1.0  0.43229  0.61430  0.19267  1.0000 1.2767526258
Mg  Mg8       1.0  0.56771  0.11430  0.30733  1.0000 1.2767526258
Mg  Mg9       1.0  0.56771  0.38570  0.80733  1.0000 1.2767526258
Mg  Mg10      1.0  0.43229  0.88570  0.69267  1.0000 1.2767526258
Mg  Mg11      1.0  1.00000  0.50000  0.50000  1.0000 1.2975932408
Mg  Mg12      1.0  0.00000  0.00000  0.00000  1.0000 1.2975932408
H   H1        1.0  0.21970  0.55240  0.24240  1.0000 0.0890447476
H   H2        1.0  0.78030  0.05240  0.25760  1.0000 0.0890447476
H   H3        1.0  0.78030  0.44760  0.75760  1.0000 0.0890447476
H   H4        1.0  0.21970  0.94760  0.74240  1.0000 0.0890447476
H   H5        1.0  0.50410  0.12110  0.44870  1.0000 0.08127567
H   H6        1.0  0.49590  0.62110  0.05130  1.0000 0.08127567
H   H7        1.0  0.49590  0.87890  0.55130  1.0000 0.08127567
H   H8        1.0  0.50410  0.37890  0.94870  1.0000 0.08127567
H   H9        1.0  0.97490  0.20910  0.47370  1.0000 0.0890447476
H   H10       1.0  0.02510  0.70910  0.02630  1.0000 0.0890447476
H   H11       1.0  0.02510  0.79090  0.52630  1.0000 0.0890447476
H   H12       1.0  0.97490  0.29090  0.97370  1.0000 0.0890447476
H   H13       1.0  0.48100  0.26320  0.13040  1.0000 0.0890447476
H   H14       1.0  0.51900  0.76320  0.36960  1.0000 0.0890447476
H   H15       1.0  0.51900  0.73680  0.86960  1.0000 0.0890447476
H   H16       1.0  0.48100  0.23680  0.63040  1.0000 0.0890447476
H   H17       1.0  0.76690  0.65190  0.57010  1.0000 0.08127567
H   H18       1.0  0.23310  0.15190  0.92990  1.0000 0.08127567
H   H19       1.0  0.23310  0.34810  0.42990  1.0000 0.08127567
H   H20       1.0  0.76690  0.84810  0.07010  1.0000 0.08127567
H   H21       1.0  0.75450  0.69850  0.27520  1.0000 0.0890447476
H   H22       1.0  0.24550  0.19850  0.22480  1.0000 0.0890447476
H   H23       1.0  0.24550  0.30150  0.72480  1.0000 0.0890447476
H   H24       1.0  0.75450  0.80150  0.77520  1.0000 0.0890447476
C   C1        1.0  0.31215  0.52673  0.29328  1.0000 0.519672945
C   C2        1.0  0.68785  0.02673  0.20672  1.0000 0.519672945
C   C3        1.0  0.68785  0.47327  0.70672  1.0000 0.519672945
C   C4        1.0  0.31215  0.97327  0.79328  1.0000 0.519672945
C   C5        1.0  0.51735  0.21269  0.44330  1.0000 0.519672945
C   C6        1.0  0.48265  0.71269  0.05670  1.0000 0.519672945
C   C7        1.0  0.48265  0.78731  0.55670  1.0000 0.519672945
C   C8        1.0  0.51735  0.28731  0.94330  1.0000 0.519672945
C   C9        1.0  0.87424  0.22700  0.43689  1.0000 0.5306552647
C   C10       1.0  0.12576  0.72700  0.06311  1.0000 0.5306552647
C   C11       1.0  0.12576  0.77300  0.56311  1.0000 0.5306552647
C   C12       1.0  0.87424  0.27300  0.93689  1.0000 0.5306552647
C   C13       1.0  0.49148  0.33222  0.16846  1.0000 0.5306552647
C   C14       1.0  0.50852  0.83222  0.33154  1.0000 0.5306552647
C   C15       1.0  0.50852  0.66778  0.83154  1.0000 0.5306552647
C   C16       1.0  0.49148  0.16778  0.66846  1.0000 0.5306552647
C   C17       1.0  0.77165  0.59725  0.53060  1.0000 0.5306552647
C   C18       1.0  0.22835  0.09725  0.96940  1.0000 0.5306552647
C   C19       1.0  0.22835  0.40275  0.46940  1.0000 0.5306552647
C   C20       1.0  0.77165  0.90275  0.03060  1.0000 0.5306552647
C   C21       1.0  0.76925  0.63634  0.31804  1.0000 0.519672945
C   C22       1.0  0.23075  0.13634  0.18196  1.0000 0.519672945
C   C23       1.0  0.23075  0.36366  0.68196  1.0000 0.519672945
C   C24       1.0  0.76925  0.86366  0.81804  1.0000 0.519672945
O   O1        1.0  0.41313  0.51075  0.28298  1.0000 -0.6832707357
O   O2        1.0  0.58687  0.01075  0.21702  1.0000 -0.6832707357
O   O3        1.0  0.58687  0.48925  0.71702  1.0000 -0.6832707357
O   O4        1.0  0.41313  0.98925  0.78298  1.0000 -0.6832707357
O   O5        1.0  0.32604  0.51116  0.36478  1.0000 -0.5715148699
O   O6        1.0  0.67396  0.01116  0.13522  1.0000 -0.5715148699
O   O7        1.0  0.67396  0.48884  0.63522  1.0000 -0.5715148699
O   O8        1.0  0.32604  0.98884  0.86478  1.0000 -0.5715148699
O   O9        1.0  0.54507  0.24490  0.38725  1.0000 -0.6869836759
O   O10       1.0  0.45493  0.74490  0.11275  1.0000 -0.6869836759
O   O11       1.0  0.45493  0.75510  0.61275  1.0000 -0.6869836759
O   O12       1.0  0.54507  0.25510  0.88725  1.0000 -0.6869836759
O   O13       1.0  0.50678  0.29304  0.49076  1.0000 -0.5806417417
O   O14       1.0  0.49322  0.79304  0.00924  1.0000 -0.5806417417
O   O15       1.0  0.49322  0.70696  0.50924  1.0000 -0.5806417417
O   O16       1.0  0.50678  0.20696  0.99076  1.0000 -0.5806417417
O   O17       1.0  0.83490  0.34989  0.43379  1.0000 -0.6730162751
O   O18       1.0  0.16510  0.84989  0.06621  1.0000 -0.6730162751
O   O19       1.0  0.16510  0.65011  0.56621  1.0000 -0.6730162751
O   O20       1.0  0.83490  0.15011  0.93379  1.0000 -0.6730162751
O   O21       1.0  0.79043  0.12974  0.39535  1.0000 -0.5806417417
O   O22       1.0  0.20957  0.62974  0.10465  1.0000 -0.5806417417
O   O23       1.0  0.20957  0.87026  0.60465  1.0000 -0.5806417417
O   O24       1.0  0.79043  0.37026  0.89535  1.0000 -0.5806417417
O   O25       1.0  0.55752  0.30266  0.25208  1.0000 -0.6832707357
O   O26       1.0  0.44248  0.80266  0.24792  1.0000 -0.6832707357
O   O27       1.0  0.44248  0.69734  0.74792  1.0000 -0.6832707357
O   O28       1.0  0.55752  0.19734  0.75208  1.0000 -0.6832707357
O   O29       1.0  0.44013  0.44481  0.13351  1.0000 -0.5806417417
O   O30       1.0  0.55987  0.94481  0.36649  1.0000 -0.5806417417
O   O31       1.0  0.55987  0.55519  0.86649  1.0000 -0.5806417417
O   O32       1.0  0.44013  0.05519  0.63351  1.0000 -0.5806417417
O   O33       1.0  0.65840  0.52432  0.47471  1.0000 -0.6832707357
O   O34       1.0  0.34160  0.02432  0.02529  1.0000 -0.6832707357
O   O35       1.0  0.34160  0.47568  0.52529  1.0000 -0.6832707357
O   O36       1.0  0.65840  0.97568  0.97471  1.0000 -0.6832707357
O   O37       1.0  0.88615  0.60166  0.53682  1.0000 -0.5806417417
O   O38       1.0  0.11385  0.10166  0.96318  1.0000 -0.5806417417
O   O39       1.0  0.11385  0.39834  0.46318  1.0000 -0.5806417417
O   O40       1.0  0.88615  0.89834  0.03682  1.0000 -0.5806417417
O   O41       1.0  0.65424  0.58228  0.30380  1.0000 -0.6832707357
O   O42       1.0  0.34576  0.08228  0.19620  1.0000 -0.6832707357
O   O43       1.0  0.34576  0.41772  0.69620  1.0000 -0.6832707357
O   O44       1.0  0.65424  0.91772  0.80380  1.0000 -0.6869836759
O   O45       1.0  0.89774  0.61362  0.38337  1.0000 -0.5636879009
O   O46       1.0  0.10226  0.11362  0.11663  1.0000 -0.5636879009
O   O47       1.0  0.10226  0.38638  0.61663  1.0000 -0.5636879009
O   O48       1.0  0.89774  0.88638  0.88337  1.0000 -0.5636879009
