# DDEC6 charges by PACMAN v1.1 (https://github.com/mtap-research/PACMAN-charge/)
data_RESQAJ_ASR_pacman
_symmetry_space_group_name_H-M   'P 1'
_cell_length_a   12.13800000
_cell_length_b   13.14600000
_cell_length_c   14.32100000
_cell_angle_alpha   91.15800000
_cell_angle_beta   98.91100000
_cell_angle_gamma   90.56700000
_symmetry_Int_Tables_number   1
_chemical_formula_structural   Cd2H30C42N9O11
_chemical_formula_sum   'Cd4 H60 C84 N18 O22'
_cell_volume   2256.90805033
_cell_formula_units_Z   2
loop_
 _symmetry_equiv_pos_site_id
 _symmetry_equiv_pos_as_xyz
  1  'x, y, z'
loop_
 _atom_site_type_symbol
 _atom_site_label
 _atom_site_symmetry_multiplicity
 _atom_site_fract_x
 _atom_site_fract_y
 _atom_site_fract_z
 _atom_site_occupancy
 _atom_site_charge
Cd  Cd1  1  0.69840000  0.92594000  0.67492000  1.0 0.8303172578
Cd  Cd2  1  0.30160000  0.07406000  0.32508000  1.0 0.8303172578
Cd  Cd3  1  0.56400000  0.22558000  0.71864000  1.0 0.8084949245
Cd  Cd4  1  0.43600000  0.77442000  0.28136000  1.0 0.8084949245
H  H1  1  0.71060000  0.62670000  0.13720000  1.0 0.0906673992
H  H2  1  0.28940000  0.37330000  0.86280000  1.0 0.0952268605
H  H3  1  0.65550000  0.56240000  0.20960000  1.0 0.0906673992
H  H4  1  0.34450000  0.43760000  0.79040000  1.0 0.0906673992
H  H5  1  0.84560000  0.65640000  0.24550000  1.0 0.1202669402
H  H6  1  0.15440000  0.34360000  0.75450000  1.0 0.1202669402
H  H7  1  0.02850000  0.69230000  0.30990000  1.0 0.1100238309
H  H8  1  0.97150000  0.30770000  0.69010000  1.0 0.1100238309
H  H9  1  0.16420000  0.57260000  0.31210000  1.0 0.1100238309
H  H10  1  0.83580000  0.42740000  0.68790000  1.0 0.1100238309
H  H11  1  0.93730000  0.37530000  0.17620000  1.0 0.1299313296
H  H12  1  0.06270000  0.62470000  0.82380000  1.0 0.1299313296
H  H13  1  0.28670000  0.45240000  0.23160000  1.0 0.1202669402
H  H14  1  0.71330000  0.54760000  0.76840000  1.0 0.1202669402
H  H15  1  0.06720000  0.25650000  0.29120000  1.0 0.1299313296
H  H16  1  0.93280000  0.74350000  0.70880000  1.0 0.1299313296
H  H17  1  0.58800000  0.42240000  0.22320000  1.0 0.083356074
H  H18  1  0.41200000  0.57760000  0.77680000  1.0 0.083356074
H  H19  1  0.47910000  0.35580000  0.19110000  1.0 0.0906673992
H  H20  1  0.52090000  0.64420000  0.80890000  1.0 0.0906673992
H  H21  1  0.79050000  0.21820000  0.12660000  1.0 0.1202669402
H  H22  1  0.20950000  0.78180000  0.87340000  1.0 0.1202669402
H  H23  1  0.90830000  0.12820000  0.23520000  1.0 0.1100238309
H  H24  1  0.09170000  0.87180000  0.76480000  1.0 0.1100238309
H  H25  1  0.86330000  0.10210000  0.38380000  1.0 0.1202669402
H  H26  1  0.13670000  0.89790000  0.61620000  1.0 0.1202669402
H  H27  1  0.58170000  0.25730000  0.31360000  1.0 0.1404413906
H  H28  1  0.41830000  0.74270000  0.68640000  1.0 0.1404413906
H  H29  1  0.67060000  0.99850000  0.44970000  1.0 0.1299313296
H  H30  1  0.32940000  0.00150000  0.55030000  1.0 0.1299313296
H  H31  1  0.67830000  0.28560000  0.52030000  1.0 0.1202669402
H  H32  1  0.32170000  0.71440000  0.47970000  1.0 0.1202669402
H  H33  1  0.35660000  0.27620000  0.97750000  1.0 0.1100238309
H  H34  1  0.64340000  0.72380000  0.02250000  1.0 0.1100238309
H  H35  1  0.37600000  0.29780000  0.08740000  1.0 0.0906673992
H  H36  1  0.62400000  0.70220000  0.91260000  1.0 0.0906673992
H  H37  1  0.24440000  0.17770000  0.07970000  1.0 0.1299313296
H  H38  1  0.75560000  0.82230000  0.92030000  1.0 0.1299313296
H  H39  1  0.09390000  0.06890000  0.07930000  1.0 0.1100238309
H  H40  1  0.90610000  0.93110000  0.92070000  1.0 0.1100238309
H  H41  1  0.91710000  0.11890000  0.01330000  1.0 0.1299313296
H  H42  1  0.08290000  0.88110000  0.98670000  1.0 0.1299313296
H  H43  1  0.04010000  0.39030000  0.95720000  1.0 0.1404413906
H  H44  1  0.95990000  0.60970000  0.04280000  1.0 0.1404413906
H  H45  1  0.80830000  0.16880000  0.83880000  1.0 0.1299313296
H  H46  1  0.19170000  0.83120000  0.16120000  1.0 0.1299313296
H  H47  1  0.82300000  0.42910000  0.97840000  1.0 0.1202669402
H  H48  1  0.17700000  0.57090000  0.02160000  1.0 0.1202669402
H  H49  1  0.00810000  0.08570000  0.55270000  1.0 0.1202669402
H  H50  1  0.99190000  0.91430000  0.44730000  1.0 0.1202669402
H  H51  1  0.18590000  0.14880000  0.55910000  1.0 0.1202669402
H  H52  1  0.81410000  0.85120000  0.44090000  1.0 0.1202669402
H  H53  1  0.22930000  0.14180000  0.84250000  1.0 0.1202669402
H  H54  1  0.77070000  0.85820000  0.15750000  1.0 0.1202669402
H  H55  1  0.04930000  0.08190000  0.83640000  1.0 0.1100238309
H  H56  1  0.95070000  0.91810000  0.16360000  1.0 0.1100238309
H  H57  1  0.49920000  0.84750000  0.92010000  1.0 0.1100238309
H  H58  1  0.50080000  0.15250000  0.07990000  1.0 0.1100238309
H  H59  1  0.43440000  0.85450000  0.06250000  1.0 0.1202669402
H  H60  1  0.56560000  0.14550000  0.93750000  1.0 0.1202669402
C  C1  1  0.58880000  0.52690000  0.07060000  1.0 0.0084937773
C  C2  1  0.41120000  0.47310000  0.92940000  1.0 0.0084937773
C  C3  1  0.51890000  0.44630000  0.08340000  1.0 0.0033805262
C  C4  1  0.48110000  0.55370000  0.91660000  1.0 0.0033805262
C  C5  1  0.42890000  0.41790000  0.01320000  1.0 0.0084937773
C  C6  1  0.57110000  0.58210000  0.98680000  1.0 0.0084937773
C  C7  1  0.68280000  0.55970000  0.14950000  1.0 -0.0708796737
C  C8  1  0.31720000  0.44030000  0.85050000  1.0 -0.0708796737
C  C9  1  0.87330000  0.51410000  0.20030000  1.0 0.2694463421
C  C10  1  0.12670000  0.48590000  0.79970000  1.0 0.2694463421
C  C11  1  0.90010000  0.60760000  0.24330000  1.0 -0.2267620276
C  C12  1  0.09990000  0.39240000  0.75670000  1.0 -0.2267620276
C  C13  1  0.00990000  0.62800000  0.28350000  1.0 -0.049537764
C  C14  1  0.99010000  0.37200000  0.71650000  1.0 -0.049537764
C  C15  1  0.09090000  0.55720000  0.28540000  1.0 -0.2211555923
C  C16  1  0.90910000  0.44280000  0.71460000  1.0 -0.2211555923
C  C17  1  0.06190000  0.46250000  0.24710000  1.0 0.1636930545
C  C18  1  0.93810000  0.53750000  0.75290000  1.0 0.1636930545
C  C19  1  0.95490000  0.43940000  0.20330000  1.0 -0.3096318851
C  C20  1  0.04510000  0.56060000  0.79670000  1.0 -0.3096318851
C  C21  1  0.25330000  0.39240000  0.24700000  1.0 0.0906673992
C  C22  1  0.74670000  0.60760000  0.75300000  1.0 0.0906673992
C  C23  1  0.13350000  0.28610000  0.27940000  1.0 0.1100238309
C  C24  1  0.86650000  0.71390000  0.72060000  1.0 0.1100238309
C  C25  1  0.54640000  0.38270000  0.17140000  1.0 -0.0708796737
C  C26  1  0.45360000  0.61730000  0.82860000  1.0 -0.0708796737
C  C27  1  0.67590000  0.25040000  0.21000000  1.0 0.2757522155
C  C28  1  0.32410000  0.74960000  0.79000000  1.0 0.2757522155
C  C29  1  0.77260000  0.20890000  0.18670000  1.0 -0.2211555923
C  C30  1  0.22740000  0.79110000  0.81330000  1.0 -0.2211555923
C  C31  1  0.84260000  0.15430000  0.25130000  1.0 -0.0708796737
C  C32  1  0.15740000  0.84570000  0.74870000  1.0 -0.0708796737
C  C33  1  0.81590000  0.13810000  0.33930000  1.0 -0.197482582
C  C34  1  0.18410000  0.86190000  0.66070000  1.0 -0.197482582
C  C35  1  0.71780000  0.17610000  0.36040000  1.0 0.1734343757
C  C36  1  0.28220000  0.82390000  0.63960000  1.0 0.1734343757
C  C37  1  0.64760000  0.23210000  0.29740000  1.0 -0.2913636278
C  C38  1  0.35240000  0.76790000  0.70260000  1.0 -0.2913636278
C  C39  1  0.66700000  0.05900000  0.48380000  1.0 0.1299313296
C  C40  1  0.33300000  0.94100000  0.51620000  1.0 0.1299313296
C  C41  1  0.67190000  0.21510000  0.52200000  1.0 0.0906673992
C  C42  1  0.32810000  0.78490000  0.47800000  1.0 0.0906673992
C  C43  1  0.35300000  0.32780000  0.02620000  1.0 -0.0775449547
C  C44  1  0.64700000  0.67220000  0.97380000  1.0 -0.0775449547
C  C45  1  0.15710000  0.29570000  0.02070000  1.0 0.261152177
C  C46  1  0.84290000  0.70430000  0.97930000  1.0 0.261152177
C  C47  1  0.17300000  0.19880000  0.05540000  1.0 -0.2267620276
C  C48  1  0.82700000  0.80120000  0.94460000  1.0 -0.2267620276
C  C49  1  0.08320000  0.13320000  0.05400000  1.0 -0.0615557927
C  C50  1  0.91680000  0.86680000  0.94600000  1.0 -0.0615557927
C  C51  1  0.97780000  0.16300000  0.01500000  1.0 -0.2211555923
C  C52  1  0.02220000  0.83700000  0.98500000  1.0 -0.2211555923
C  C53  1  0.96370000  0.25850000  0.97880000  1.0 0.1636930545
C  C54  1  0.03630000  0.74150000  0.02120000  1.0 0.1636930545
C  C55  1  0.05150000  0.32550000  0.98150000  1.0 -0.3096318851
C  C56  1  0.94850000  0.67450000  0.01850000  1.0 -0.3096318851
C  C57  1  0.79080000  0.23290000  0.86050000  1.0 0.0906673992
C  C58  1  0.20920000  0.76710000  0.13950000  1.0 0.0906673992
C  C59  1  0.79870000  0.37560000  0.93650000  1.0 0.0952268605
C  C60  1  0.20130000  0.62440000  0.06350000  1.0 0.0952268605
C  C61  1  0.90240000  0.01610000  0.68950000  1.0 0.5252123763
C  C62  1  0.09760000  0.98390000  0.31050000  1.0 0.5252123763
C  C63  1  0.01210000  0.07220000  0.69320000  1.0 -0.0221612648
C  C64  1  0.98790000  0.92780000  0.30680000  1.0 -0.0221612648
C  C65  1  0.05310000  0.09580000  0.61100000  1.0 -0.117480289
C  C66  1  0.94690000  0.90420000  0.38900000  1.0 -0.117480289
C  C67  1  0.15920000  0.13390000  0.61480000  1.0 -0.1077093715
C  C68  1  0.84080000  0.86610000  0.38520000  1.0 -0.1077093715
C  C69  1  0.22660000  0.15030000  0.70010000  1.0 -0.0221612648
C  C70  1  0.77340000  0.84970000  0.29990000  1.0 -0.0221612648
C  C71  1  0.18460000  0.13000000  0.78440000  1.0 -0.117480289
C  C72  1  0.81540000  0.87000000  0.21560000  1.0 -0.117480289
C  C73  1  0.07780000  0.09310000  0.78080000  1.0 -0.1340504448
C  C74  1  0.92220000  0.90690000  0.21920000  1.0 -0.1340504448
C  C75  1  0.34640000  0.18180000  0.70560000  1.0 0.5381676842
C  C76  1  0.65360000  0.81820000  0.29440000  1.0 0.5381676842
C  C77  1  0.58330000  0.98890000  0.82140000  1.0 0.5620728423
C  C78  1  0.41670000  0.01110000  0.17860000  1.0 0.5620728423
C  C79  1  0.53870000  0.99620000  0.91370000  1.0 -0.0221612648
C  C80  1  0.46130000  0.00380000  0.08630000  1.0 -0.0221612648
C  C81  1  0.49940000  0.90950000  0.95260000  1.0 -0.117480289
C  C82  1  0.50060000  0.09050000  0.04740000  1.0 -0.117480289
C  C83  1  0.46070000  0.91330000  0.03800000  1.0 -0.1077093715
C  C84  1  0.53930000  0.08670000  0.96200000  1.0 -0.1077093715
N  N1  1  0.14440000  0.38370000  0.25490000  1.0 -0.0293336223
N  N2  1  0.85560000  0.61630000  0.74510000  1.0 -0.0293336223
N  N3  1  0.22730000  0.23890000  0.28420000  1.0 -0.1905877042
N  N4  1  0.77270000  0.76110000  0.71580000  1.0 -0.1905877042
N  N5  1  0.30640000  0.30810000  0.26330000  1.0 -0.197482582
N  N6  1  0.69360000  0.69190000  0.73670000  1.0 -0.197482582
N  N7  1  0.68700000  0.15090000  0.44980000  1.0 -0.0221612648
N  N8  1  0.31300000  0.84910000  0.55020000  1.0 -0.0221612648
N  N9  1  0.64300000  0.06270000  0.56660000  1.0 -0.197482582
N  N10  1  0.35700000  0.93730000  0.43340000  1.0 -0.197482582
N  N11  1  0.64730000  0.16560000  0.59360000  1.0 -0.2105277961
N  N12  1  0.35270000  0.83440000  0.40640000  1.0 -0.2105277961
N  N13  1  0.85510000  0.28800000  0.93060000  1.0 -0.0293336223
N  N14  1  0.14490000  0.71200000  0.06940000  1.0 -0.0293336223
N  N15  1  0.70190000  0.28270000  0.82840000  1.0 -0.2105277961
N  N16  1  0.29810000  0.71730000  0.17160000  1.0 -0.2105277961
N  N17  1  0.70670000  0.37590000  0.87690000  1.0 -0.2267620276
N  N18  1  0.29330000  0.62410000  0.12310000  1.0 -0.2267620276
O  O1  1  0.77080000  0.48620000  0.15230000  1.0 -0.1905877042
O  O2  1  0.22920000  0.51380000  0.84770000  1.0 -0.1905877042
O  O3  1  0.61280000  0.30260000  0.14130000  1.0 -0.1783444296
O  O4  1  0.38720000  0.69740000  0.85870000  1.0 -0.1783444296
O  O5  1  0.55950000  0.40220000  0.65480000  1.0 -0.0708796737
O  O6  1  0.44050000  0.59780000  0.34520000  1.0 -0.0708796737
O  O7  1  0.24050000  0.36620000  0.01980000  1.0 -0.2105277961
O  O8  1  0.75950000  0.63380000  0.98020000  1.0 -0.2105277961
O  O9  1  0.86640000  0.96450000  0.61640000  1.0 -0.5575255662
O  O10  1  0.13360000  0.03550000  0.38360000  1.0 -0.5575255662
O  O11  1  0.85210000  0.02140000  0.75880000  1.0 -0.5422954868
O  O12  1  0.14790000  0.97860000  0.24120000  1.0 -0.5422954868
O  O13  1  0.39520000  0.16020000  0.63630000  1.0 -0.5575255662
O  O14  1  0.60480000  0.83980000  0.36370000  1.0 -0.5575255662
O  O15  1  0.39610000  0.22420000  0.77870000  1.0 -0.5339876126
O  O16  1  0.60390000  0.77580000  0.22130000  1.0 -0.5339876126
O  O17  1  0.59900000  0.90150000  0.78980000  1.0 -0.5228926252
O  O18  1  0.40100000  0.09850000  0.21020000  1.0 -0.5228926252
O  O19  1  0.60880000  0.06750000  0.78170000  1.0 -0.5575255662
O  O20  1  0.39120000  0.93250000  0.21830000  1.0 -0.5575255662
O  O21  1  0.52220000  0.40060000  0.65500000  1.0 -0.049537764
O  O22  1  0.47780000  0.59940000  0.34500000  1.0 -0.049537764
