# DDEC6 charges by PACMAN v1.1 (https://github.com/mtap-research/PACMAN-charge/)
data_2013[Zn][nan]3[ASR]28
_chemical_formula_sum              "Zn12 H120 C184 N24 O48"
_cell_length_a       11.253
_cell_length_b       18.172
_cell_length_c       25.161
_cell_angle_alpha    90
_cell_angle_beta     90
_cell_angle_gamma    90

_symmetry_space_group_name_H-M    "P 1"
_symmetry_Int_Tables_number       1

loop_
  _symmetry_equiv_pos_as_xyz
  'x, y, z'

loop_
  _atom_site_type_symbol
  _atom_site_label
  _atom_site_symmetry_multiplicity
  _atom_site_fract_x
  _atom_site_fract_y
  _atom_site_fract_z
  _atom_site_occupancy
  _atom_site_charge
Zn  Zn1       1.0  0.37973  0.07359  0.97463  1.0000 0.8913686283
Zn  Zn2       1.0  0.62027  0.07359  0.52537  1.0000 0.8913686283
Zn  Zn3       1.0  0.62027  0.42641  0.47463  1.0000 0.8913686283
Zn  Zn4       1.0  0.37973  0.42641  0.02537  1.0000 0.8913686283
Zn  Zn5       1.0  0.62027  0.92641  0.02537  1.0000 0.8913686283
Zn  Zn6       1.0  0.37973  0.92641  0.47463  1.0000 0.8913686283
Zn  Zn7       1.0  0.37973  0.57359  0.52537  1.0000 0.8913686283
Zn  Zn8       1.0  0.62027  0.57359  0.97463  1.0000 0.8913686283
Zn  Zn9       1.0  0.00000  0.29015  0.25000  1.0000 0.7974551924
Zn  Zn10      1.0  0.00000  0.20985  0.75000  1.0000 0.7974551924
Zn  Zn11      1.0  0.00000  0.70985  0.75000  1.0000 0.7974551924
Zn  Zn12      1.0  0.00000  0.79015  0.25000  1.0000 0.7974551924
H   H1        1.0  0.48990  0.20720  0.05130  1.0000 0.1197632772
H   H2        1.0  0.51010  0.20720  0.44870  1.0000 0.1197632772
H   H3        1.0  0.51010  0.29280  0.55130  1.0000 0.1197632772
H   H4        1.0  0.48990  0.29280  0.94870  1.0000 0.1197632772
H   H5        1.0  0.51010  0.79280  0.94870  1.0000 0.1197632772
H   H6        1.0  0.48990  0.79280  0.55130  1.0000 0.1197632772
H   H7        1.0  0.48990  0.70720  0.44870  1.0000 0.1197632772
H   H8        1.0  0.51010  0.70720  0.05130  1.0000 0.1197632772
H   H9        1.0  0.70490  0.31290  0.15200  1.0000 0.1197632772
H   H10       1.0  0.29510  0.31290  0.34800  1.0000 0.1197632772
H   H11       1.0  0.29510  0.18710  0.65200  1.0000 0.1197632772
H   H12       1.0  0.70490  0.18710  0.84800  1.0000 0.1197632772
H   H13       1.0  0.29510  0.68710  0.84800  1.0000 0.1197632772
H   H14       1.0  0.70490  0.68710  0.65200  1.0000 0.1197632772
H   H15       1.0  0.70490  0.81290  0.34800  1.0000 0.1197632772
H   H16       1.0  0.29510  0.81290  0.15200  1.0000 0.1197632772
H   H17       1.0  0.72520  0.09400  0.13920  1.0000 0.1197632772
H   H18       1.0  0.27480  0.09400  0.36080  1.0000 0.1197632772
H   H19       1.0  0.27480  0.40600  0.63920  1.0000 0.1197632772
H   H20       1.0  0.72520  0.40600  0.86080  1.0000 0.1197632772
H   H21       1.0  0.27480  0.90600  0.86080  1.0000 0.1197632772
H   H22       1.0  0.72520  0.90600  0.63920  1.0000 0.1197632772
H   H23       1.0  0.72520  0.59400  0.36080  1.0000 0.1197632772
H   H24       1.0  0.27480  0.59400  0.13920  1.0000 0.1197632772
H   H25       1.0  0.26450  0.01490  0.07810  1.0000 0.1532447793
H   H26       1.0  0.73550  0.01490  0.42190  1.0000 0.1532447793
H   H27       1.0  0.73550  0.48510  0.57810  1.0000 0.1532447793
H   H28       1.0  0.26450  0.48510  0.92190  1.0000 0.1532447793
H   H29       1.0  0.73550  0.98510  0.92190  1.0000 0.1532447793
H   H30       1.0  0.26450  0.98510  0.57810  1.0000 0.1532447793
H   H31       1.0  0.26450  0.51490  0.42190  1.0000 0.1532447793
H   H32       1.0  0.73550  0.51490  0.07810  1.0000 0.1532447793
H   H33       1.0  0.12690  0.98290  0.14300  1.0000 0.1197632772
H   H34       1.0  0.87310  0.98290  0.35700  1.0000 0.1197632772
H   H35       1.0  0.87310  0.51710  0.64300  1.0000 0.1197632772
H   H36       1.0  0.12690  0.51710  0.85700  1.0000 0.1197632772
H   H37       1.0  0.87310  0.01710  0.85700  1.0000 0.1197632772
H   H38       1.0  0.12690  0.01710  0.64300  1.0000 0.1197632772
H   H39       1.0  0.12690  0.48290  0.35700  1.0000 0.1197632772
H   H40       1.0  0.87310  0.48290  0.14300  1.0000 0.1197632772
H   H41       1.0  0.92730  0.01110  0.13250  1.0000 0.1197632772
H   H42       1.0  0.07270  0.01110  0.36750  1.0000 0.1197632772
H   H43       1.0  0.07270  0.48890  0.63250  1.0000 0.1197632772
H   H44       1.0  0.92730  0.48890  0.86750  1.0000 0.1197632772
H   H45       1.0  0.07270  0.98890  0.86750  1.0000 0.1197632772
H   H46       1.0  0.92730  0.98890  0.63250  1.0000 0.1197632772
H   H47       1.0  0.92730  0.51110  0.36750  1.0000 0.1197632772
H   H48       1.0  0.07270  0.51110  0.13250  1.0000 0.1197632772
H   H49       1.0  0.85940  0.07200  0.05890  1.0000 0.1300616459
H   H50       1.0  0.14060  0.07200  0.44110  1.0000 0.1300616459
H   H51       1.0  0.14060  0.42800  0.55890  1.0000 0.1300616459
H   H52       1.0  0.85940  0.42800  0.94110  1.0000 0.1300616459
H   H53       1.0  0.14060  0.92800  0.94110  1.0000 0.1300616459
H   H54       1.0  0.85940  0.92800  0.55890  1.0000 0.1300616459
H   H55       1.0  0.85940  0.57200  0.44110  1.0000 0.1300616459
H   H56       1.0  0.14060  0.57200  0.05890  1.0000 0.1300616459
H   H57       1.0  0.04740  0.13060  0.85980  1.0000 0.1012105751
H   H58       1.0  0.95260  0.13060  0.64020  1.0000 0.1012105751
H   H59       1.0  0.95260  0.36940  0.35980  1.0000 0.1012105751
H   H60       1.0  0.04740  0.36940  0.14020  1.0000 0.1012105751
H   H61       1.0  0.95260  0.86940  0.14020  1.0000 0.1012105751
H   H62       1.0  0.04740  0.86940  0.35980  1.0000 0.1012105751
H   H63       1.0  0.04740  0.63060  0.64020  1.0000 0.1012105751
H   H64       1.0  0.95260  0.63060  0.85980  1.0000 0.1012105751
H   H65       1.0  0.26550  0.24980  0.95080  1.0000 0.1300616459
H   H66       1.0  0.73450  0.24980  0.54920  1.0000 0.1300616459
H   H67       1.0  0.73450  0.25020  0.45080  1.0000 0.1300616459
H   H68       1.0  0.26550  0.25020  0.04920  1.0000 0.1300616459
H   H69       1.0  0.73450  0.75020  0.04920  1.0000 0.1300616459
H   H70       1.0  0.26550  0.75020  0.45080  1.0000 0.1300616459
H   H71       1.0  0.26550  0.74980  0.54920  1.0000 0.1300616459
H   H72       1.0  0.73450  0.74980  0.95080  1.0000 0.1300616459
H   H73       1.0  0.29080  0.32890  0.88020  1.0000 0.1400060662
H   H74       1.0  0.70920  0.32890  0.61980  1.0000 0.1400060662
H   H75       1.0  0.70920  0.17110  0.38020  1.0000 0.1400060662
H   H76       1.0  0.29080  0.17110  0.11980  1.0000 0.1400060662
H   H77       1.0  0.70920  0.67110  0.11980  1.0000 0.1400060662
H   H78       1.0  0.29080  0.67110  0.38020  1.0000 0.1400060662
H   H79       1.0  0.29080  0.82890  0.61980  1.0000 0.1400060662
H   H80       1.0  0.70920  0.82890  0.88020  1.0000 0.1400060662
H   H81       1.0  0.18970  0.30860  0.80250  1.0000 0.1197632772
H   H82       1.0  0.81030  0.30860  0.69750  1.0000 0.1197632772
H   H83       1.0  0.81030  0.19140  0.30250  1.0000 0.1197632772
H   H84       1.0  0.18970  0.19140  0.19750  1.0000 0.1197632772
H   H85       1.0  0.81030  0.69140  0.19750  1.0000 0.1197632772
H   H86       1.0  0.18970  0.69140  0.30250  1.0000 0.1197632772
H   H87       1.0  0.18970  0.80860  0.69750  1.0000 0.1197632772
H   H88       1.0  0.81030  0.80860  0.80250  1.0000 0.1197632772
H   H89       1.0  0.83650  0.13450  0.97570  1.0000 0.1300616459
H   H90       1.0  0.16350  0.13450  0.52430  1.0000 0.1300616459
H   H91       1.0  0.16350  0.36550  0.47570  1.0000 0.1300616459
H   H92       1.0  0.83650  0.36550  0.02430  1.0000 0.1300616459
H   H93       1.0  0.16350  0.86550  0.02430  1.0000 0.1300616459
H   H94       1.0  0.83650  0.86550  0.47570  1.0000 0.1300616459
H   H95       1.0  0.83650  0.63450  0.52430  1.0000 0.1300616459
H   H96       1.0  0.16350  0.63450  0.97570  1.0000 0.1300616459
H   H97       1.0  0.89850  0.15100  0.92120  1.0000 0.1104947974
H   H98       1.0  0.10150  0.15100  0.57880  1.0000 0.1104947974
H   H99       1.0  0.10150  0.34900  0.42120  1.0000 0.1104947974
H   H100      1.0  0.89850  0.34900  0.07880  1.0000 0.1104947974
H   H101      1.0  0.10150  0.84900  0.07880  1.0000 0.1104947974
H   H102      1.0  0.89850  0.84900  0.42120  1.0000 0.1104947974
H   H103      1.0  0.89850  0.65100  0.57880  1.0000 0.1104947974
H   H104      1.0  0.10150  0.65100  0.92120  1.0000 0.1104947974
H   H105      1.0  0.96440  0.26530  0.95420  1.0000 0.1012105751
H   H106      1.0  0.03560  0.26530  0.54580  1.0000 0.1012105751
H   H107      1.0  0.03560  0.23470  0.45420  1.0000 0.1012105751
H   H108      1.0  0.96440  0.23470  0.04580  1.0000 0.1012105751
H   H109      1.0  0.03560  0.73470  0.04580  1.0000 0.1012105751
H   H110      1.0  0.96440  0.73470  0.45420  1.0000 0.1012105751
H   H111      1.0  0.96440  0.76530  0.54580  1.0000 0.1012105751
H   H112      1.0  0.03560  0.76530  0.95420  1.0000 0.1012105751
H   H113      1.0  0.82540  0.26080  0.95490  1.0000 0.1104947974
H   H114      1.0  0.17460  0.26080  0.54510  1.0000 0.1104947974
H   H115      1.0  0.17460  0.23920  0.45490  1.0000 0.1104947974
H   H116      1.0  0.82540  0.23920  0.04510  1.0000 0.1104947974
H   H117      1.0  0.17460  0.73920  0.04510  1.0000 0.1104947974
H   H118      1.0  0.82540  0.73920  0.45490  1.0000 0.1104947974
H   H119      1.0  0.82540  0.76080  0.54510  1.0000 0.1104947974
H   H120      1.0  0.17460  0.76080  0.95490  1.0000 0.1104947974
C   C1        1.0  0.56360  0.07080  0.06360  1.0000 0.6021140226
C   C2        1.0  0.43640  0.07080  0.43640  1.0000 0.6021140226
C   C3        1.0  0.43640  0.42920  0.56360  1.0000 0.6021140226
C   C4        1.0  0.56360  0.42920  0.93640  1.0000 0.6021140226
C   C5        1.0  0.43640  0.92920  0.93640  1.0000 0.6021140226
C   C6        1.0  0.56360  0.92920  0.56360  1.0000 0.6021140226
C   C7        1.0  0.56360  0.57080  0.43640  1.0000 0.6021140226
C   C8        1.0  0.43640  0.57080  0.06360  1.0000 0.6021140226
C   C9        1.0  0.60230  0.13930  0.09110  1.0000 -0.0393950931
C   C10       1.0  0.39770  0.13930  0.40890  1.0000 -0.0393950931
C   C11       1.0  0.39770  0.36070  0.59110  1.0000 -0.0393950931
C   C12       1.0  0.60230  0.36070  0.90890  1.0000 -0.0393950931
C   C13       1.0  0.39770  0.86070  0.90890  1.0000 -0.0393950931
C   C14       1.0  0.60230  0.86070  0.59110  1.0000 -0.0393950931
C   C15       1.0  0.60230  0.63930  0.40890  1.0000 -0.0393950931
C   C16       1.0  0.39770  0.63930  0.09110  1.0000 -0.0393950931
C   C17       1.0  0.55060  0.20630  0.07640  1.0000 -0.1186816744
C   C18       1.0  0.44940  0.20630  0.42360  1.0000 -0.1186816744
C   C19       1.0  0.44940  0.29370  0.57640  1.0000 -0.1186816744
C   C20       1.0  0.55060  0.29370  0.92360  1.0000 -0.1186816744
C   C21       1.0  0.44940  0.79370  0.92360  1.0000 -0.1186816744
C   C22       1.0  0.55060  0.79370  0.57640  1.0000 -0.1186816744
C   C23       1.0  0.55060  0.70630  0.42360  1.0000 -0.1186816744
C   C24       1.0  0.44940  0.70630  0.07640  1.0000 -0.1186816744
C   C25       1.0  0.58940  0.27060  0.09890  1.0000 -0.0227035676
C   C26       1.0  0.41060  0.27060  0.40110  1.0000 -0.0227035676
C   C27       1.0  0.41060  0.22940  0.59890  1.0000 -0.0227035676
C   C28       1.0  0.58940  0.22940  0.90110  1.0000 -0.0227035676
C   C29       1.0  0.41060  0.72940  0.90110  1.0000 -0.0227035676
C   C30       1.0  0.58940  0.72940  0.59890  1.0000 -0.0227035676
C   C31       1.0  0.58940  0.77060  0.40110  1.0000 -0.0227035676
C   C32       1.0  0.41060  0.77060  0.09890  1.0000 -0.0227035676
C   C33       1.0  0.67860  0.26910  0.13690  1.0000 -0.1186816744
C   C34       1.0  0.32140  0.26910  0.36310  1.0000 -0.1186816744
C   C35       1.0  0.32140  0.23090  0.63690  1.0000 -0.1186816744
C   C36       1.0  0.67860  0.23090  0.86310  1.0000 -0.1186816744
C   C37       1.0  0.32140  0.73090  0.86310  1.0000 -0.1186816744
C   C38       1.0  0.67860  0.73090  0.63690  1.0000 -0.1186816744
C   C39       1.0  0.67860  0.76910  0.36310  1.0000 -0.1186816744
C   C40       1.0  0.32140  0.76910  0.13690  1.0000 -0.1186816744
C   C41       1.0  0.72880  0.20310  0.15270  1.0000 -0.0282272931
C   C42       1.0  0.27120  0.20310  0.34730  1.0000 -0.0282272931
C   C43       1.0  0.27120  0.29690  0.65270  1.0000 -0.0282272931
C   C44       1.0  0.72880  0.29690  0.84730  1.0000 -0.0282272931
C   C45       1.0  0.27120  0.79690  0.84730  1.0000 -0.0282272931
C   C46       1.0  0.72880  0.79690  0.65270  1.0000 -0.0282272931
C   C47       1.0  0.72880  0.70310  0.34730  1.0000 -0.0282272931
C   C48       1.0  0.27120  0.70310  0.15270  1.0000 -0.0282272931
C   C49       1.0  0.69090  0.13850  0.12930  1.0000 -0.1095205347
C   C50       1.0  0.30910  0.13850  0.37070  1.0000 -0.1095205347
C   C51       1.0  0.30910  0.36150  0.62930  1.0000 -0.1095205347
C   C52       1.0  0.69090  0.36150  0.87070  1.0000 -0.1095205347
C   C53       1.0  0.30910  0.86150  0.87070  1.0000 -0.1095205347
C   C54       1.0  0.69090  0.86150  0.62930  1.0000 -0.1095205347
C   C55       1.0  0.69090  0.63850  0.37070  1.0000 -0.1095205347
C   C56       1.0  0.30910  0.63850  0.12930  1.0000 -0.1095205347
C   C57       1.0  0.82730  0.20370  0.19330  1.0000 0.5577323147
C   C58       1.0  0.17270  0.20370  0.30670  1.0000 0.5577323147
C   C59       1.0  0.17270  0.29630  0.69330  1.0000 0.5577323147
C   C60       1.0  0.82730  0.29630  0.80670  1.0000 0.5577323147
C   C61       1.0  0.17270  0.79630  0.80670  1.0000 0.5577323147
C   C62       1.0  0.82730  0.79630  0.69330  1.0000 0.5577323147
C   C63       1.0  0.82730  0.70370  0.30670  1.0000 0.5577323147
C   C64       1.0  0.17270  0.70370  0.19330  1.0000 0.5577323147
C   C65       1.0  0.53620  0.34230  0.08200  1.0000 0.5577323147
C   C66       1.0  0.46380  0.34230  0.41800  1.0000 0.5577323147
C   C67       1.0  0.46380  0.15770  0.58200  1.0000 0.5577323147
C   C68       1.0  0.53620  0.15770  0.91800  1.0000 0.5577323147
C   C69       1.0  0.46380  0.65770  0.91800  1.0000 0.5577323147
C   C70       1.0  0.53620  0.65770  0.58200  1.0000 0.5577323147
C   C71       1.0  0.53620  0.84230  0.41800  1.0000 0.5577323147
C   C72       1.0  0.46380  0.84230  0.08200  1.0000 0.5577323147
C   C73       1.0  0.14420  0.06770  0.03130  1.0000 0.1300616459
C   C74       1.0  0.85580  0.06770  0.46870  1.0000 0.1300616459
C   C75       1.0  0.85580  0.43230  0.53130  1.0000 0.1300616459
C   C76       1.0  0.14420  0.43230  0.96870  1.0000 0.1300616459
C   C77       1.0  0.85580  0.93230  0.96870  1.0000 0.1300616459
C   C78       1.0  0.14420  0.93230  0.53130  1.0000 0.1300616459
C   C79       1.0  0.14420  0.56770  0.46870  1.0000 0.1300616459
C   C80       1.0  0.85580  0.56770  0.03130  1.0000 0.1300616459
C   C81       1.0  0.18490  0.02780  0.07470  1.0000 -0.1703121654
C   C82       1.0  0.81510  0.02780  0.42530  1.0000 -0.1703121654
C   C83       1.0  0.81510  0.47220  0.57470  1.0000 -0.1703121654
C   C84       1.0  0.18490  0.47220  0.92530  1.0000 -0.1703121654
C   C85       1.0  0.81510  0.97220  0.92530  1.0000 -0.1703121654
C   C86       1.0  0.18490  0.97220  0.57470  1.0000 -0.1703121654
C   C87       1.0  0.18490  0.52780  0.42530  1.0000 -0.1703121654
C   C88       1.0  0.81510  0.52780  0.07470  1.0000 -0.1703121654
C   C89       1.0  0.10220  0.00800  0.11280  1.0000 -0.1095205347
C   C90       1.0  0.89780  0.00800  0.38720  1.0000 -0.1095205347
C   C91       1.0  0.89780  0.49200  0.61280  1.0000 -0.1095205347
C   C92       1.0  0.10220  0.49200  0.88720  1.0000 -0.1095205347
C   C93       1.0  0.89780  0.99200  0.88720  1.0000 -0.1095205347
C   C94       1.0  0.10220  0.99200  0.61280  1.0000 -0.1095205347
C   C95       1.0  0.10220  0.50800  0.38720  1.0000 -0.1095205347
C   C96       1.0  0.89780  0.50800  0.11280  1.0000 -0.1095205347
C   C97       1.0  0.98090  0.02540  0.10630  1.0000 -0.0929561901
C   C98       1.0  0.01910  0.02540  0.39370  1.0000 -0.0929561901
C   C99       1.0  0.01910  0.47460  0.60630  1.0000 -0.0929561901
C   C100      1.0  0.98090  0.47460  0.89370  1.0000 -0.0929561901
C   C101      1.0  0.01910  0.97460  0.89370  1.0000 -0.0929561901
C   C102      1.0  0.98090  0.97460  0.60630  1.0000 -0.0929561901
C   C103      1.0  0.98090  0.52540  0.39370  1.0000 -0.0929561901
C   C104      1.0  0.01910  0.52540  0.10630  1.0000 -0.0929561901
C   C105      1.0  0.93990  0.06220  0.06320  1.0000 -0.1703121654
C   C106      1.0  0.06010  0.06220  0.43680  1.0000 -0.1703121654
C   C107      1.0  0.06010  0.43780  0.56320  1.0000 -0.1703121654
C   C108      1.0  0.93990  0.43780  0.93680  1.0000 -0.1703121654
C   C109      1.0  0.06010  0.93780  0.93680  1.0000 -0.1703121654
C   C110      1.0  0.93990  0.93780  0.56320  1.0000 -0.1703121654
C   C111      1.0  0.93990  0.56220  0.43680  1.0000 -0.1703121654
C   C112      1.0  0.06010  0.56220  0.06320  1.0000 -0.1703121654
C   C113      1.0  0.02390  0.08500  0.02560  1.0000 0.0841756769
C   C114      1.0  0.97610  0.08500  0.47440  1.0000 0.0841756769
C   C115      1.0  0.97610  0.41500  0.52560  1.0000 0.0841756769
C   C116      1.0  0.02390  0.41500  0.97440  1.0000 0.0841756769
C   C117      1.0  0.97610  0.91500  0.97440  1.0000 0.0841756769
C   C118      1.0  0.02390  0.91500  0.52560  1.0000 0.0841756769
C   C119      1.0  0.02390  0.58500  0.47440  1.0000 0.0841756769
C   C120      1.0  0.97610  0.58500  0.02560  1.0000 0.0841756769
C   C121      1.0  0.12590  0.13340  0.95919  1.0000 0.2603321381
C   C122      1.0  0.87410  0.13340  0.54081  1.0000 0.2603321381
C   C123      1.0  0.87410  0.36660  0.45919  1.0000 0.2603321381
C   C124      1.0  0.12590  0.36660  0.04081  1.0000 0.2603321381
C   C125      1.0  0.87410  0.86660  0.04081  1.0000 0.2603321381
C   C126      1.0  0.12590  0.86660  0.45919  1.0000 0.2603321381
C   C127      1.0  0.12590  0.63340  0.54081  1.0000 0.2603321381
C   C128      1.0  0.87410  0.63340  0.95919  1.0000 0.2603321381
C   C129      1.0  0.15080  0.18090  0.91290  1.0000 -0.0227035676
C   C130      1.0  0.84920  0.18090  0.58710  1.0000 -0.0227035676
C   C131      1.0  0.84920  0.31910  0.41290  1.0000 -0.0227035676
C   C132      1.0  0.15080  0.31910  0.08710  1.0000 -0.0227035676
C   C133      1.0  0.84920  0.81910  0.08710  1.0000 -0.0227035676
C   C134      1.0  0.15080  0.81910  0.41290  1.0000 -0.0227035676
C   C135      1.0  0.15080  0.68090  0.58710  1.0000 -0.0227035676
C   C136      1.0  0.84920  0.68090  0.91290  1.0000 -0.0227035676
C   C137      1.0  0.09630  0.17130  0.86450  1.0000 0.0105402467
C   C138      1.0  0.90370  0.17130  0.63550  1.0000 0.0105402467
C   C139      1.0  0.90370  0.32870  0.36450  1.0000 0.0105402467
C   C140      1.0  0.09630  0.32870  0.13550  1.0000 0.0105402467
C   C141      1.0  0.90370  0.82870  0.13550  1.0000 0.0105402467
C   C142      1.0  0.09630  0.82870  0.36450  1.0000 0.0105402467
C   C143      1.0  0.09630  0.67130  0.63550  1.0000 0.0105402467
C   C144      1.0  0.90370  0.67130  0.86450  1.0000 0.0105402467
C   C145      1.0  0.22610  0.24160  0.91890  1.0000 -0.0604786641
C   C146      1.0  0.77390  0.24160  0.58110  1.0000 -0.0604786641
C   C147      1.0  0.77390  0.25840  0.41890  1.0000 -0.0604786641
C   C148      1.0  0.22610  0.25840  0.08110  1.0000 -0.0604786641
C   C149      1.0  0.77390  0.75840  0.08110  1.0000 -0.0604786641
C   C150      1.0  0.22610  0.75840  0.41890  1.0000 -0.0604786641
C   C151      1.0  0.22610  0.74160  0.58110  1.0000 -0.0604786641
C   C152      1.0  0.77390  0.74160  0.91890  1.0000 -0.0604786641
C   C153      1.0  0.24060  0.28850  0.87720  1.0000 -0.1186816744
C   C154      1.0  0.75940  0.28850  0.62280  1.0000 -0.1186816744
C   C155      1.0  0.75940  0.21150  0.37720  1.0000 -0.1186816744
C   C156      1.0  0.24060  0.21150  0.12280  1.0000 -0.1186816744
C   C157      1.0  0.75940  0.71150  0.12280  1.0000 -0.1186816744
C   C158      1.0  0.24060  0.71150  0.37720  1.0000 -0.1186816744
C   C159      1.0  0.24060  0.78850  0.62280  1.0000 -0.1186816744
C   C160      1.0  0.75940  0.78850  0.87720  1.0000 -0.1186816744
C   C161      1.0  0.18050  0.27550  0.83040  1.0000 0.1012105751
C   C162      1.0  0.81950  0.27550  0.66960  1.0000 0.1012105751
C   C163      1.0  0.81950  0.22450  0.33040  1.0000 0.1012105751
C   C164      1.0  0.18050  0.22450  0.16960  1.0000 0.1012105751
C   C165      1.0  0.81950  0.72450  0.16960  1.0000 0.1012105751
C   C166      1.0  0.18050  0.72450  0.33040  1.0000 0.1012105751
C   C167      1.0  0.18050  0.77550  0.66960  1.0000 0.1012105751
C   C168      1.0  0.81950  0.77550  0.83040  1.0000 0.1012105751
C   C169      1.0  0.90380  0.15880  0.95930  1.0000 -0.0929561901
C   C170      1.0  0.09620  0.15880  0.54070  1.0000 -0.0929561901
C   C171      1.0  0.09620  0.34120  0.45930  1.0000 -0.0929561901
C   C172      1.0  0.90380  0.34120  0.04070  1.0000 -0.0929561901
C   C173      1.0  0.09620  0.84120  0.04070  1.0000 -0.0929561901
C   C174      1.0  0.90380  0.84120  0.45930  1.0000 -0.0929561901
C   C175      1.0  0.90380  0.65880  0.54070  1.0000 -0.0929561901
C   C176      1.0  0.09620  0.65880  0.95930  1.0000 -0.0929561901
C   C177      1.0  0.89720  0.24110  0.97080  1.0000 -0.1940204344
C   C178      1.0  0.10280  0.24110  0.52920  1.0000 -0.1940204344
C   C179      1.0  0.10280  0.25890  0.47080  1.0000 -0.1940204344
C   C180      1.0  0.89720  0.25890  0.02920  1.0000 -0.1940204344
C   C181      1.0  0.10280  0.75890  0.02920  1.0000 -0.1940204344
C   C182      1.0  0.89720  0.75890  0.47080  1.0000 -0.1940204344
C   C183      1.0  0.89720  0.74110  0.52920  1.0000 -0.1940204344
C   C184      1.0  0.10280  0.74110  0.97080  1.0000 -0.1940204344
N   N1        1.0  0.20620  0.09902  0.98919  1.0000 -0.4161551587
N   N2        1.0  0.79380  0.09902  0.51081  1.0000 -0.4161551587
N   N3        1.0  0.79380  0.40098  0.48919  1.0000 -0.4161551587
N   N4        1.0  0.20620  0.40098  0.01081  1.0000 -0.4161551587
N   N5        1.0  0.79380  0.90098  0.01081  1.0000 -0.4161551587
N   N6        1.0  0.20620  0.90098  0.48919  1.0000 -0.4161551587
N   N7        1.0  0.20620  0.59902  0.51081  1.0000 -0.4161551587
N   N8        1.0  0.79380  0.59902  0.98919  1.0000 -0.4161551587
N   N9        1.0  0.01440  0.12540  0.97917  1.0000 -0.0604786641
N   N10       1.0  0.98560  0.12540  0.52083  1.0000 -0.0604786641
N   N11       1.0  0.98560  0.37460  0.47917  1.0000 -0.0604786641
N   N12       1.0  0.01440  0.37460  0.02083  1.0000 -0.0604786641
N   N13       1.0  0.98560  0.87460  0.02083  1.0000 -0.0604786641
N   N14       1.0  0.01440  0.87460  0.47917  1.0000 -0.0604786641
N   N15       1.0  0.01440  0.62540  0.52083  1.0000 -0.0604786641
N   N16       1.0  0.98560  0.62540  0.97917  1.0000 -0.0604786641
N   N17       1.0  0.11040  0.21820  0.82361  1.0000 -0.2099546149
N   N18       1.0  0.88960  0.21820  0.67639  1.0000 -0.2099546149
N   N19       1.0  0.88960  0.28180  0.32361  1.0000 -0.2099546149
N   N20       1.0  0.11040  0.28180  0.17639  1.0000 -0.2099546149
N   N21       1.0  0.88960  0.78180  0.17639  1.0000 -0.2099546149
N   N22       1.0  0.11040  0.78180  0.32361  1.0000 -0.2099546149
N   N23       1.0  0.11040  0.71820  0.67639  1.0000 -0.2099546149
N   N24       1.0  0.88960  0.71820  0.82361  1.0000 -0.2099546149
O   O1        1.0  0.46120  0.06675  0.04409  1.0000 -0.5596900835
O   O2        1.0  0.53880  0.06675  0.45591  1.0000 -0.5596900835
O   O3        1.0  0.53880  0.43325  0.54409  1.0000 -0.5596900835
O   O4        1.0  0.46120  0.43325  0.95591  1.0000 -0.5596900835
O   O5        1.0  0.53880  0.93325  0.95591  1.0000 -0.5596900835
O   O6        1.0  0.46120  0.93325  0.54409  1.0000 -0.5596900835
O   O7        1.0  0.46120  0.56675  0.45591  1.0000 -0.5596900835
O   O8        1.0  0.53880  0.56675  0.04409  1.0000 -0.5596900835
O   O9        1.0  0.63940  0.01967  0.06125  1.0000 -0.5392195426
O   O10       1.0  0.36060  0.01967  0.43875  1.0000 -0.5392195426
O   O11       1.0  0.36060  0.48033  0.56125  1.0000 -0.5392195426
O   O12       1.0  0.63940  0.48033  0.93875  1.0000 -0.5392195426
O   O13       1.0  0.36060  0.98033  0.93875  1.0000 -0.5392195426
O   O14       1.0  0.63940  0.98033  0.56125  1.0000 -0.5392195426
O   O15       1.0  0.63940  0.51967  0.43875  1.0000 -0.5392195426
O   O16       1.0  0.36060  0.51967  0.06125  1.0000 -0.5392195426
O   O17       1.0  0.86290  0.26700  0.20621  1.0000 -0.5596900835
O   O18       1.0  0.13710  0.26700  0.29379  1.0000 -0.5596900835
O   O19       1.0  0.13710  0.23300  0.70621  1.0000 -0.5596900835
O   O20       1.0  0.86290  0.23300  0.79379  1.0000 -0.5596900835
O   O21       1.0  0.13710  0.73300  0.79379  1.0000 -0.5596900835
O   O22       1.0  0.86290  0.73300  0.70621  1.0000 -0.5596900835
O   O23       1.0  0.86290  0.76700  0.29379  1.0000 -0.5596900835
O   O24       1.0  0.13710  0.76700  0.20621  1.0000 -0.5596900835
O   O25       1.0  0.86490  0.14500  0.21173  1.0000 -0.5392195426
O   O26       1.0  0.13510  0.14500  0.28827  1.0000 -0.5392195426
O   O27       1.0  0.13510  0.35500  0.71173  1.0000 -0.5392195426
O   O28       1.0  0.86490  0.35500  0.78827  1.0000 -0.5392195426
O   O29       1.0  0.13510  0.85500  0.78827  1.0000 -0.5392195426
O   O30       1.0  0.86490  0.85500  0.71173  1.0000 -0.5392195426
O   O31       1.0  0.86490  0.64500  0.28827  1.0000 -0.5392195426
O   O32       1.0  0.13510  0.64500  0.21173  1.0000 -0.5392195426
O   O33       1.0  0.57960  0.40080  0.09620  1.0000 -0.5154828421
O   O34       1.0  0.42040  0.40080  0.40380  1.0000 -0.5154828421
O   O35       1.0  0.42040  0.09920  0.59620  1.0000 -0.5154828421
O   O36       1.0  0.57960  0.09920  0.90380  1.0000 -0.5154828421
O   O37       1.0  0.42040  0.59920  0.90380  1.0000 -0.5154828421
O   O38       1.0  0.57960  0.59920  0.59620  1.0000 -0.5154828421
O   O39       1.0  0.57960  0.90080  0.40380  1.0000 -0.5154828421
O   O40       1.0  0.42040  0.90080  0.09620  1.0000 -0.5154828421
O   O41       1.0  0.44760  0.33804  0.05223  1.0000 -0.5503793947
O   O42       1.0  0.55240  0.33804  0.44777  1.0000 -0.5503793947
O   O43       1.0  0.55240  0.16196  0.55223  1.0000 -0.5503793947
O   O44       1.0  0.44760  0.16196  0.94777  1.0000 -0.5503793947
O   O45       1.0  0.55240  0.66196  0.94777  1.0000 -0.5503793947
O   O46       1.0  0.44760  0.66196  0.55223  1.0000 -0.5503793947
O   O47       1.0  0.44760  0.83804  0.44777  1.0000 -0.5503793947
O   O48       1.0  0.55240  0.83804  0.05223  1.0000 -0.5503793947
