# DDEC6 charges by PACMAN v1.1 (https://github.com/mtap-research/PACMAN-charge/)
data_2008[Mn][fet]3[ASR]1
_chemical_formula_sum              "Mn4 H60 C76 S4 N12 O24"
_cell_length_a       11.663
_cell_length_b       8.708
_cell_length_c       27.394
_cell_angle_alpha    90
_cell_angle_beta     103.175
_cell_angle_gamma    90

_symmetry_space_group_name_H-M    "P 1"
_symmetry_Int_Tables_number       1

loop_
  _symmetry_equiv_pos_as_xyz
  'x, y, z'

loop_
  _atom_site_type_symbol
  _atom_site_label
  _atom_site_symmetry_multiplicity
  _atom_site_fract_x
  _atom_site_fract_y
  _atom_site_fract_z
  _atom_site_occupancy
  _atom_site_charge
Mn  Mn1       1.0  0.05718  0.63387  0.80333  1.0000 0.8771427456
Mn  Mn2       1.0  0.94282  0.13387  0.69667  1.0000 0.8771427456
Mn  Mn3       1.0  0.94282  0.36613  0.19667  1.0000 0.8771427456
Mn  Mn4       1.0  0.05718  0.86613  0.30333  1.0000 0.8771427456
H   H1        1.0  0.99910  0.04850  0.88750  1.0000 0.3091756735
H   H2        1.0  0.00090  0.54850  0.61250  1.0000 0.3091756735
H   H3        1.0  0.00090  0.95150  0.11250  1.0000 0.3091756735
H   H4        1.0  0.99910  0.45150  0.38750  1.0000 0.3091756735
H   H5        1.0  0.10950  0.25100  0.87770  1.0000 0.1379112225
H   H6        1.0  0.89050  0.75100  0.62230  1.0000 0.1379112225
H   H7        1.0  0.89050  0.74900  0.12230  1.0000 0.1379112225
H   H8        1.0  0.10950  0.24900  0.37770  1.0000 0.1379112225
H   H9        1.0  0.99880  0.35600  0.87270  1.0000 0.1119102566
H   H10       1.0  0.00120  0.85600  0.62730  1.0000 0.1119102566
H   H11       1.0  0.00120  0.64400  0.12730  1.0000 0.1119102566
H   H12       1.0  0.99880  0.14400  0.37270  1.0000 0.1119102566
H   H13       1.0  0.88110  0.13660  0.99370  1.0000 0.1312084033
H   H14       1.0  0.11890  0.63660  0.50630  1.0000 0.1312084033
H   H15       1.0  0.11890  0.86340  0.00630  1.0000 0.1312084033
H   H16       1.0  0.88110  0.36340  0.49370  1.0000 0.1312084033
H   H17       1.0  0.85120  0.56650  0.04140  1.0000 0.1119102566
H   H18       1.0  0.14880  0.06650  0.45860  1.0000 0.1119102566
H   H19       1.0  0.14880  0.43350  0.95860  1.0000 0.1119102566
H   H20       1.0  0.85120  0.93350  0.54140  1.0000 0.1119102566
H   H21       1.0  0.81040  0.65410  0.95990  1.0000 0.120159309
H   H22       1.0  0.18960  0.15410  0.54010  1.0000 0.120159309
H   H23       1.0  0.18960  0.34590  0.04010  1.0000 0.120159309
H   H24       1.0  0.81040  0.84590  0.45990  1.0000 0.120159309
H   H25       1.0  0.80290  0.47940  0.89420  1.0000 0.1119102566
H   H26       1.0  0.19710  0.97940  0.60580  1.0000 0.1119102566
H   H27       1.0  0.19710  0.52060  0.10580  1.0000 0.1119102566
H   H28       1.0  0.80290  0.02060  0.39420  1.0000 0.1119102566
H   H29       1.0  0.81400  0.46340  0.75450  1.0000 0.1119102566
H   H30       1.0  0.18600  0.96340  0.74550  1.0000 0.1119102566
H   H31       1.0  0.18600  0.53660  0.24550  1.0000 0.1119102566
H   H32       1.0  0.81400  0.03660  0.25450  1.0000 0.1119102566
H   H33       1.0  0.61840  0.45830  0.75300  1.0000 0.1312084033
H   H34       1.0  0.38160  0.95830  0.74700  1.0000 0.1312084033
H   H35       1.0  0.38160  0.54170  0.24700  1.0000 0.1312084033
H   H36       1.0  0.61840  0.04170  0.25300  1.0000 0.1312084033
H   H37       1.0  0.66940  0.81150  0.84840  1.0000 0.1379112225
H   H38       1.0  0.33060  0.31150  0.65160  1.0000 0.1379112225
H   H39       1.0  0.33060  0.18850  0.15160  1.0000 0.1379112225
H   H40       1.0  0.66940  0.68850  0.34840  1.0000 0.1379112225
H   H41       1.0  0.86400  0.80890  0.84520  1.0000 0.1119102566
H   H42       1.0  0.13600  0.30890  0.65480  1.0000 0.1119102566
H   H43       1.0  0.13600  0.19110  0.15480  1.0000 0.1119102566
H   H44       1.0  0.86400  0.69110  0.34520  1.0000 0.1119102566
H   H45       1.0  0.42720  0.53990  0.73350  1.0000 0.1312084033
H   H46       1.0  0.57280  0.03990  0.76650  1.0000 0.1312084033
H   H47       1.0  0.57280  0.46010  0.26650  1.0000 0.1312084033
H   H48       1.0  0.42720  0.96010  0.23350  1.0000 0.1312084033
H   H49       1.0  0.23500  0.53790  0.73860  1.0000 0.1119102566
H   H50       1.0  0.76500  0.03790  0.76140  1.0000 0.1119102566
H   H51       1.0  0.76500  0.46210  0.26140  1.0000 0.1119102566
H   H52       1.0  0.23500  0.96210  0.23860  1.0000 0.1119102566
H   H53       1.0  0.31240  0.71660  0.87060  1.0000 0.1119102566
H   H54       1.0  0.68760  0.21660  0.62940  1.0000 0.1119102566
H   H55       1.0  0.68760  0.28340  0.12940  1.0000 0.1119102566
H   H56       1.0  0.31240  0.78340  0.37060  1.0000 0.1119102566
H   H57       1.0  0.50670  0.72750  0.86980  1.0000 0.1379112225
H   H58       1.0  0.49330  0.22750  0.63020  1.0000 0.1379112225
H   H59       1.0  0.49330  0.27250  0.13020  1.0000 0.1379112225
H   H60       1.0  0.50670  0.77250  0.36980  1.0000 0.1379112225
C   C1        1.0  0.01422  0.26750  0.80532  1.0000 0.6134642098
C   C2        1.0  0.98578  0.76750  0.69468  1.0000 0.6134642098
C   C3        1.0  0.98578  0.73250  0.19468  1.0000 0.6134642098
C   C4        1.0  0.01422  0.23250  0.30532  1.0000 0.6134642098
C   C5        1.0  0.02640  0.25950  0.86190  1.0000 -0.1988562014
C   C6        1.0  0.97360  0.75950  0.63810  1.0000 -0.1988562014
C   C7        1.0  0.97360  0.74050  0.13810  1.0000 -0.1988562014
C   C8        1.0  0.02640  0.24050  0.36190  1.0000 -0.1988562014
C   C9        1.0  0.84140  0.29310  0.93810  1.0000 -0.0998458258
C   C10       1.0  0.15860  0.79310  0.56190  1.0000 -0.0998458258
C   C11       1.0  0.15860  0.70690  0.06190  1.0000 -0.0998458258
C   C12       1.0  0.84140  0.20690  0.43810  1.0000 -0.0998458258
C   C13       1.0  0.86660  0.24040  0.98710  1.0000 -0.0998458258
C   C14       1.0  0.13340  0.74040  0.51290  1.0000 -0.0998458258
C   C15       1.0  0.13340  0.75960  0.01290  1.0000 -0.0998458258
C   C16       1.0  0.86660  0.25960  0.48710  1.0000 -0.0998458258
C   C17       1.0  0.86990  0.34270  0.02610  1.0000 -0.0099533516
C   C18       1.0  0.13010  0.84270  0.47390  1.0000 -0.0099533516
C   C19       1.0  0.13010  0.65730  0.97390  1.0000 -0.0099533516
C   C20       1.0  0.86990  0.15730  0.52610  1.0000 -0.0099533516
C   C21       1.0  0.84870  0.49740  0.01530  1.0000 -0.0998458258
C   C22       1.0  0.15130  0.99740  0.48470  1.0000 -0.0998458258
C   C23       1.0  0.15130  0.50260  0.98470  1.0000 -0.0998458258
C   C24       1.0  0.84870  0.00260  0.51530  1.0000 -0.0998458258
C   C25       1.0  0.82420  0.55010  0.96670  1.0000 -0.0920911025
C   C26       1.0  0.17580  0.05010  0.53330  1.0000 -0.0920911025
C   C27       1.0  0.17580  0.44990  0.03330  1.0000 -0.0920911025
C   C28       1.0  0.82420  0.94990  0.46670  1.0000 -0.0920911025
C   C29       1.0  0.81990  0.44560  0.92720  1.0000 -0.0920911025
C   C30       1.0  0.18010  0.94560  0.57280  1.0000 -0.0920911025
C   C31       1.0  0.18010  0.55440  0.07280  1.0000 -0.0920911025
C   C32       1.0  0.81990  0.05440  0.42720  1.0000 -0.0920911025
C   C33       1.0  0.89360  0.28550  0.07950  1.0000 0.5507973764
C   C34       1.0  0.10640  0.78550  0.42050  1.0000 0.5507973764
C   C35       1.0  0.10640  0.71450  0.92050  1.0000 0.5507973764
C   C36       1.0  0.89360  0.21450  0.57950  1.0000 0.5507973764
C   C37       1.0  0.78420  0.53530  0.77350  1.0000 0.0901298985
C   C38       1.0  0.21580  0.03530  0.72650  1.0000 0.0901298985
C   C39       1.0  0.21580  0.46470  0.22650  1.0000 0.0901298985
C   C40       1.0  0.78420  0.96470  0.27350  1.0000 0.0901298985
C   C41       1.0  0.66650  0.53100  0.77240  1.0000 -0.1781231728
C   C42       1.0  0.33350  0.03100  0.72760  1.0000 -0.1781231728
C   C43       1.0  0.33350  0.46900  0.22760  1.0000 -0.1781231728
C   C44       1.0  0.66650  0.96900  0.27240  1.0000 -0.1781231728
C   C45       1.0  0.61960  0.63540  0.80050  1.0000 0.1011449157
C   C46       1.0  0.38040  0.13540  0.69950  1.0000 0.1011449157
C   C47       1.0  0.38040  0.36460  0.19950  1.0000 0.1011449157
C   C48       1.0  0.61960  0.86460  0.30050  1.0000 0.1011449157
C   C49       1.0  0.69640  0.73970  0.82850  1.0000 -0.188417666
C   C50       1.0  0.30360  0.23970  0.67150  1.0000 -0.188417666
C   C51       1.0  0.30360  0.26030  0.17150  1.0000 -0.188417666
C   C52       1.0  0.69640  0.76030  0.32850  1.0000 -0.188417666
C   C53       1.0  0.81370  0.73630  0.82660  1.0000 0.0901298985
C   C54       1.0  0.18630  0.23630  0.67340  1.0000 0.0901298985
C   C55       1.0  0.18630  0.26370  0.17340  1.0000 0.0901298985
C   C56       1.0  0.81370  0.76370  0.32660  1.0000 0.0901298985
C   C57       1.0  0.49330  0.63190  0.80210  1.0000 0.1011449157
C   C58       1.0  0.50670  0.13190  0.69790  1.0000 0.1011449157
C   C59       1.0  0.50670  0.36810  0.19790  1.0000 0.1011449157
C   C60       1.0  0.49330  0.86810  0.30210  1.0000 0.1011449157
C   C61       1.0  0.40680  0.57620  0.76230  1.0000 -0.1988562014
C   C62       1.0  0.59320  0.07620  0.73770  1.0000 -0.1988562014
C   C63       1.0  0.59320  0.42380  0.23770  1.0000 -0.1988562014
C   C64       1.0  0.40680  0.92380  0.26230  1.0000 -0.1988562014
C   C65       1.0  0.29080  0.57520  0.76580  1.0000 0.1011449157
C   C66       1.0  0.70920  0.07520  0.73420  1.0000 0.1011449157
C   C67       1.0  0.70920  0.42480  0.23420  1.0000 0.1011449157
C   C68       1.0  0.29080  0.92480  0.26580  1.0000 0.1011449157
C   C69       1.0  0.33600  0.67950  0.84260  1.0000 0.066055737
C   C70       1.0  0.66400  0.17950  0.65740  1.0000 0.066055737
C   C71       1.0  0.66400  0.32050  0.15740  1.0000 0.066055737
C   C72       1.0  0.33600  0.82050  0.34260  1.0000 0.066055737
C   C73       1.0  0.45350  0.68610  0.84240  1.0000 -0.1988562014
C   C74       1.0  0.54650  0.18610  0.65760  1.0000 -0.1988562014
C   C75       1.0  0.54650  0.31390  0.15760  1.0000 -0.1988562014
C   C76       1.0  0.45350  0.81390  0.34240  1.0000 -0.1988562014
S   S1        1.0  0.83405  0.16010  0.88841  1.0000 1.0810081694
S   S2        1.0  0.16595  0.66010  0.61159  1.0000 1.0810081694
S   S3        1.0  0.16595  0.83990  0.11159  1.0000 1.0810081694
S   S4        1.0  0.83405  0.33990  0.38841  1.0000 1.0810081694
N   N1        1.0  0.96494  0.13590  0.88054  1.0000 -0.435163502
N   N2        1.0  0.03506  0.63590  0.61946  1.0000 -0.435163502
N   N3        1.0  0.03506  0.86410  0.11946  1.0000 -0.435163502
N   N4        1.0  0.96494  0.36410  0.38054  1.0000 -0.435163502
N   N5        1.0  0.85866  0.63620  0.80006  1.0000 -0.2262006481
N   N6        1.0  0.14134  0.13620  0.69994  1.0000 -0.2262006481
N   N7        1.0  0.14134  0.36380  0.19994  1.0000 -0.2262006481
N   N8        1.0  0.85866  0.86380  0.30006  1.0000 -0.2262006481
N   N9        1.0  0.25367  0.62310  0.80497  1.0000 -0.2262006481
N   N10       1.0  0.74633  0.12310  0.69503  1.0000 -0.2262006481
N   N11       1.0  0.74633  0.37690  0.19503  1.0000 -0.2262006481
N   N12       1.0  0.25367  0.87690  0.30497  1.0000 -0.2262006481
O   O1        1.0  0.04547  0.39090  0.78907  1.0000 -0.5637430515
O   O2        1.0  0.95453  0.89090  0.71093  1.0000 -0.5637430515
O   O3        1.0  0.95453  0.60910  0.21093  1.0000 -0.5637430515
O   O4        1.0  0.04547  0.10910  0.28907  1.0000 -0.5637430515
O   O5        1.0  0.97770  0.15310  0.77880  1.0000 -0.5485750403
O   O6        1.0  0.02230  0.65310  0.72120  1.0000 -0.5485750403
O   O7        1.0  0.02230  0.84690  0.22120  1.0000 -0.5485750403
O   O8        1.0  0.97770  0.34690  0.27880  1.0000 -0.5485750403
O   O9        1.0  0.76640  0.23100  0.84410  1.0000 -0.538462114
O   O10       1.0  0.23360  0.73100  0.65590  1.0000 -0.538462114
O   O11       1.0  0.23360  0.76900  0.15590  1.0000 -0.538462114
O   O12       1.0  0.76640  0.26900  0.34410  1.0000 -0.538462114
O   O13       1.0  0.79872  0.01550  0.90502  1.0000 -0.5485750403
O   O14       1.0  0.20128  0.51550  0.59498  1.0000 -0.5485750403
O   O15       1.0  0.20128  0.98450  0.09498  1.0000 -0.5485750403
O   O16       1.0  0.79872  0.48450  0.40502  1.0000 -0.5485750403
O   O17       1.0  0.89336  0.14170  0.08516  1.0000 -0.5751852955
O   O18       1.0  0.10664  0.64170  0.41484  1.0000 -0.5751852955
O   O19       1.0  0.10664  0.85830  0.91484  1.0000 -0.5751852955
O   O20       1.0  0.89336  0.35830  0.58516  1.0000 -0.5751852955
O   O21       1.0  0.90593  0.38150  0.11403  1.0000 -0.5733406212
O   O22       1.0  0.09407  0.88150  0.38597  1.0000 -0.5733406212
O   O23       1.0  0.09407  0.61850  0.88597  1.0000 -0.5733406212
O   O24       1.0  0.90593  0.11850  0.61403  1.0000 -0.5733406212
