# DDEC6 charges by PACMAN v1.1 (https://github.com/mtap-research/PACMAN-charge/)
data_2009[Zn][nan]3[ASR]13
_chemical_formula_sum              "Zn4 H48 C66 O24"
_cell_length_a       13.2269
_cell_length_b       13.2269
_cell_length_c       13.177
_cell_angle_alpha    79.8713
_cell_angle_beta     100.129
_cell_angle_gamma    91.5649

_symmetry_space_group_name_H-M    "P 1"
_symmetry_Int_Tables_number       1

loop_
  _symmetry_equiv_pos_as_xyz
  'x, y, z'

loop_
  _atom_site_type_symbol
  _atom_site_label
  _atom_site_symmetry_multiplicity
  _atom_site_fract_x
  _atom_site_fract_y
  _atom_site_fract_z
  _atom_site_occupancy
  _atom_site_charge
Zn  Zn1       1.0  0.63677  0.29247  0.00373  1.0000 0.9152803382
Zn  Zn2       1.0  0.70753  0.36323  0.50373  1.0000 0.9152803382
Zn  Zn3       1.0  0.76402  0.38900  0.19129  1.0000 0.9621665141
Zn  Zn4       1.0  0.61100  0.23598  0.69129  1.0000 0.9621665141
H   H1        1.0  0.00260  0.79160  0.49200  1.0000 0.1103759947
H   H2        1.0  0.20840  0.99740  0.99200  1.0000 0.1103759947
H   H3        1.0  0.08660  0.87080  0.45780  1.0000 0.0991561151
H   H4        1.0  0.12920  0.91340  0.95780  1.0000 0.0991561151
H   H5        1.0  0.12970  0.97950  0.63020  1.0000 0.0991561151
H   H6        1.0  0.02050  0.87030  0.13020  1.0000 0.0991561151
H   H7        1.0  0.21880  0.93360  0.58720  1.0000 0.0991561151
H   H8        1.0  0.06640  0.78120  0.08720  1.0000 0.0991561151
H   H9        1.0  0.12990  0.67170  0.61950  1.0000 0.0991561151
H   H10       1.0  0.32830  0.87010  0.11950  1.0000 0.0991561151
H   H11       1.0  0.21380  0.71720  0.69920  1.0000 0.0991561151
H   H12       1.0  0.28280  0.78620  0.19920  1.0000 0.0991561151
H   H13       1.0  0.00010  0.86130  0.70460  1.0000 0.1103759947
H   H14       1.0  0.13870  0.99990  0.20460  1.0000 0.1103759947
H   H15       1.0  0.08040  0.77840  0.76960  1.0000 0.0991561151
H   H16       1.0  0.22160  0.91960  0.26960  1.0000 0.0991561151
H   H17       1.0  0.96800  0.90900  0.31410  1.0000 0.1192315666
H   H18       1.0  0.09100  0.03200  0.81410  1.0000 0.1192315666
H   H19       1.0  0.85700  0.07820  0.49540  1.0000 0.1402230373
H   H20       1.0  0.92180  0.14300  0.99540  1.0000 0.1402230373
H   H21       1.0  0.87870  0.01270  0.16800  1.0000 0.1103759947
H   H22       1.0  0.98730  0.12130  0.66800  1.0000 0.1103759947
H   H23       1.0  0.76940  0.17820  0.35120  1.0000 0.131199517
H   H24       1.0  0.82180  0.23060  0.85120  1.0000 0.131199517
H   H25       1.0  0.27620  0.08200  0.64130  1.0000 0.1192315666
H   H26       1.0  0.91800  0.72380  0.14130  1.0000 0.1192315666
H   H27       1.0  0.34760  0.88120  0.91050  1.0000 0.131199517
H   H28       1.0  0.11880  0.65240  0.41050  1.0000 0.131199517
H   H29       1.0  0.40130  0.19290  0.70610  1.0000 0.1192315666
H   H30       1.0  0.80710  0.59870  0.20610  1.0000 0.1192315666
H   H31       1.0  0.46400  0.99600  0.97650  1.0000 0.1192315666
H   H32       1.0  0.00400  0.53600  0.47650  1.0000 0.1192315666
H   H33       1.0  0.35490  0.73530  0.42770  1.0000 0.131199517
H   H34       1.0  0.26470  0.64510  0.92770  1.0000 0.131199517
H   H35       1.0  0.28590  0.58290  0.69720  1.0000 0.1192315666
H   H36       1.0  0.41710  0.71410  0.19720  1.0000 0.1192315666
H   H37       1.0  0.48080  0.61520  0.43350  1.0000 0.1192315666
H   H38       1.0  0.38480  0.51920  0.93350  1.0000 0.1192315666
H   H39       1.0  0.41970  0.46870  0.70780  1.0000 0.131199517
H   H40       1.0  0.53130  0.58030  0.20780  1.0000 0.131199517
H   H41       1.0  0.97760  0.72740  0.87440  1.0000 0.1192315666
H   H42       1.0  0.27260  0.02240  0.37440  1.0000 0.1192315666
H   H43       1.0  0.86260  0.57020  0.64710  1.0000 0.1402230373
H   H44       1.0  0.42980  0.13740  0.14710  1.0000 0.1402230373
H   H45       1.0  0.90020  0.61560  0.98970  1.0000 0.1103759947
H   H46       1.0  0.38440  0.09980  0.48970  1.0000 0.1103759947
H   H47       1.0  0.78540  0.45780  0.76510  1.0000 0.131199517
H   H48       1.0  0.54220  0.21460  0.26510  1.0000 0.131199517
C   C1        1.0  0.10600  0.82560  0.61830  1.0000 0.07225487
C   C2        1.0  0.17440  0.89400  0.11830  1.0000 0.07225487
C   C3        1.0  0.04250  0.85070  0.50930  1.0000 -0.0798907334
C   C4        1.0  0.14930  0.95750  0.00930  1.0000 -0.0798907334
C   C5        1.0  0.17300  0.91960  0.63780  1.0000 -0.0722094179
C   C6        1.0  0.08040  0.82700  0.13780  1.0000 -0.0722094179
C   C7        1.0  0.17300  0.73100  0.62940  1.0000 -0.0895711362
C   C8        1.0  0.26900  0.82700  0.12940  1.0000 -0.0895711362
C   C9        1.0  0.03850  0.80090  0.70150  1.0000 -0.0798907334
C   C10       1.0  0.19910  0.96150  0.20150  1.0000 -0.0798907334
C   C11       1.0  0.92470  0.98490  0.41930  1.0000 0.258615331
C   C12       1.0  0.01510  0.07530  0.91930  1.0000 0.258615331
C   C13       1.0  0.92920  0.96400  0.32150  1.0000 -0.2496163734
C   C14       1.0  0.03600  0.07080  0.82150  1.0000 -0.2496163734
C   C15       1.0  0.86220  0.06560  0.42930  1.0000 -0.1819399335
C   C16       1.0  0.93440  0.13780  0.92930  1.0000 -0.1819399335
C   C17       1.0  0.87510  0.02590  0.23430  1.0000 -0.0895711362
C   C18       1.0  0.97410  0.12490  0.73430  1.0000 -0.0895711362
C   C19       1.0  0.81010  0.12470  0.34350  1.0000 -0.0798907334
C   C20       1.0  0.87530  0.18990  0.84350  1.0000 -0.0798907334
C   C21       1.0  0.81550  0.10750  0.24400  1.0000 -0.0623431455
C   C22       1.0  0.89250  0.18450  0.74400  1.0000 -0.0623431455
C   C23       1.0  0.75860  0.17120  0.14840  1.0000 0.5654811523
C   C24       1.0  0.82880  0.24140  0.64840  1.0000 0.5654811523
C   C25       1.0  0.30040  0.97040  0.77050  1.0000 0.258615331
C   C26       1.0  0.02960  0.69960  0.27050  1.0000 0.2508007846
C   C27       1.0  0.31500  0.06420  0.70790  1.0000 -0.239519518
C   C28       1.0  0.93580  0.68500  0.20790  1.0000 -0.239519518
C   C29       1.0  0.35710  0.94450  0.86980  1.0000 -0.2203578764
C   C30       1.0  0.05550  0.64290  0.36980  1.0000 -0.2203578764
C   C31       1.0  0.38950  0.13070  0.74760  1.0000 -0.0895711362
C   C32       1.0  0.86930  0.61050  0.24760  1.0000 -0.0895711362
C   C33       1.0  0.42770  0.01230  0.90850  1.0000 -0.0895711362
C   C34       1.0  0.98770  0.57230  0.40850  1.0000 -0.0895711362
C   C35       1.0  0.44520  0.10640  0.84590  1.0000 -0.0722094179
C   C36       1.0  0.89360  0.55480  0.34590  1.0000 -0.0722094179
C   C37       1.0  0.52200  0.17820  0.88910  1.0000 0.5812372527
C   C38       1.0  0.82180  0.47800  0.38910  1.0000 0.5812372527
C   C39       1.0  0.31090  0.67210  0.56370  1.0000 0.2508007846
C   C40       1.0  0.32790  0.68910  0.06370  1.0000 0.2508007846
C   C41       1.0  0.36750  0.68110  0.48380  1.0000 -0.2277709582
C   C42       1.0  0.31890  0.63250  0.98380  1.0000 -0.2277709582
C   C43       1.0  0.32680  0.59120  0.64560  1.0000 -0.2496163734
C   C44       1.0  0.40880  0.67320  0.14560  1.0000 -0.2496163734
C   C45       1.0  0.44300  0.60920  0.48740  1.0000 -0.0798907334
C   C46       1.0  0.39080  0.55700  0.98740  1.0000 -0.0798907334
C   C47       1.0  0.40550  0.52130  0.65020  1.0000 -0.0623431455
C   C48       1.0  0.47870  0.59450  0.15020  1.0000 -0.0623431455
C   C49       1.0  0.46260  0.52840  0.57100  1.0000 -0.0623431455
C   C50       1.0  0.47160  0.53740  0.07100  1.0000 -0.0623431455
C   C51       1.0  0.54300  0.45060  0.57750  1.0000 0.5919084213
C   C52       1.0  0.54940  0.45700  0.07750  1.0000 0.5919084213
C   C53       1.0  0.92770  0.66010  0.74950  1.0000 0.2508007846
C   C54       1.0  0.33990  0.07230  0.24950  1.0000 0.2508007846
C   C55       1.0  0.93900  0.67320  0.85200  1.0000 -0.239519518
C   C56       1.0  0.32680  0.06100  0.35200  1.0000 -0.239519518
C   C57       1.0  0.87030  0.57910  0.71650  1.0000 -0.1983984449
C   C58       1.0  0.42090  0.12970  0.21650  1.0000 -0.1983984449
C   C59       1.0  0.89310  0.60570  0.92060  1.0000 -0.0798907334
C   C60       1.0  0.39430  0.10690  0.42060  1.0000 -0.0798907334
C   C61       1.0  0.82470  0.51170  0.78750  1.0000 -0.0722094179
C   C62       1.0  0.48830  0.17530  0.28750  1.0000 -0.0722094179
C   C63       1.0  0.83630  0.52310  0.89100  1.0000 -0.0525925664
C   C64       1.0  0.47690  0.16370  0.39100  1.0000 -0.0525925664
C   C65       1.0  0.78970  0.44970  0.96890  1.0000 0.5919084213
C   C66       1.0  0.55030  0.21030  0.46890  1.0000 0.5919084213
O   O1        1.0  0.97650  0.93310  0.51100  1.0000 -0.1875186055
O   O2        1.0  0.06690  0.02350  0.01100  1.0000 -0.1875186055
O   O3        1.0  0.23016  0.89856  0.74000  1.0000 -0.1875186055
O   O4        1.0  0.10144  0.76984  0.24000  1.0000 -0.1875186055
O   O5        1.0  0.23889  0.74731  0.55400  1.0000 -0.1983984449
O   O6        1.0  0.25269  0.76111  0.05400  1.0000 -0.1983984449
O   O7        1.0  0.97058  0.72178  0.67370  1.0000 -0.1875186055
O   O8        1.0  0.27822  0.02942  0.17370  1.0000 -0.1875186055
O   O9        1.0  0.75553  0.14987  0.06110  1.0000 -0.5022380539
O   O10       1.0  0.85013  0.24447  0.56110  1.0000 -0.5022380539
O   O11       1.0  0.70881  0.25135  0.15930  1.0000 -0.600203518
O   O12       1.0  0.74865  0.29119  0.65930  1.0000 -0.600203518
O   O13       1.0  0.57432  0.23652  0.83310  1.0000 -0.5438101628
O   O14       1.0  0.76348  0.42568  0.33310  1.0000 -0.5438101628
O   O15       1.0  0.53317  0.18137  0.98540  1.0000 -0.5022380539
O   O16       1.0  0.81863  0.46683  0.48540  1.0000 -0.5022380539
O   O17       1.0  0.59990  0.46310  0.50970  1.0000 -0.5321877041
O   O18       1.0  0.53690  0.40010  0.00970  1.0000 -0.5321877041
O   O19       1.0  0.54910  0.37790  0.65280  1.0000 -0.5438101628
O   O20       1.0  0.62210  0.45090  0.15280  1.0000 -0.5438101628
O   O21       1.0  0.80530  0.46510  0.06010  1.0000 -0.5643101373
O   O22       1.0  0.53490  0.19470  0.56010  1.0000 -0.5643101373
O   O23       1.0  0.73793  0.37753  0.93540  1.0000 -0.5321877041
O   O24       1.0  0.62247  0.26207  0.43540  1.0000 -0.5321877041
