# DDEC6 charges by PACMAN v1.1 (https://github.com/mtap-research/PACMAN-charge/)
data_2013[Zn][dia]3[ASR]10
_chemical_formula_sum              "Zn8 H72 C106 N16 O40"
_cell_length_a       17.5176
_cell_length_b       17.5176
_cell_length_c       17.5176
_cell_angle_alpha    116.755
_cell_angle_beta     116.755
_cell_angle_gamma    95.7188

_symmetry_space_group_name_H-M    "P 1"
_symmetry_Int_Tables_number       1

loop_
  _symmetry_equiv_pos_as_xyz
  'x, y, z'

loop_
  _atom_site_type_symbol
  _atom_site_label
  _atom_site_symmetry_multiplicity
  _atom_site_fract_x
  _atom_site_fract_y
  _atom_site_fract_z
  _atom_site_occupancy
  _atom_site_charge
Zn  Zn1       1.0  0.81460  0.07592  0.92854  1.0000 0.7481896863
Zn  Zn2       1.0  0.14738  0.88606  0.07146  1.0000 0.7481896863
Zn  Zn3       1.0  0.11394  0.18540  0.26132  1.0000 0.7481896863
Zn  Zn4       1.0  0.92408  0.85262  0.73868  1.0000 0.7481896863
Zn  Zn5       1.0  0.63606  0.06460  0.23868  1.0000 0.7481896863
Zn  Zn6       1.0  0.82592  0.39738  0.76132  1.0000 0.7481896863
Zn  Zn7       1.0  0.93540  0.17408  0.57146  1.0000 0.7481896863
Zn  Zn8       1.0  0.60262  0.36394  0.42854  1.0000 0.7481896863
H   H1        1.0  0.03570  0.15910  0.85300  1.0000 0.1430269637
H   H2        1.0  0.30610  0.18270  0.14700  1.0000 0.1430269637
H   H3        1.0  0.81730  0.96430  0.12340  1.0000 0.1430269637
H   H4        1.0  0.84090  0.69390  0.87660  1.0000 0.1430269637
H   H5        1.0  0.04470  0.30890  0.90960  1.0000 0.1216619597
H   H6        1.0  0.39930  0.13510  0.09040  1.0000 0.1216619597
H   H7        1.0  0.86490  0.95530  0.26420  1.0000 0.1216619597
H   H8        1.0  0.69110  0.60070  0.73580  1.0000 0.1216619597
H   H9        1.0  0.96660  0.36610  0.99210  1.0000 0.1460545836
H   H10       1.0  0.37400  0.97450  0.00790  1.0000 0.1460545836
H   H11       1.0  0.02550  0.03340  0.39950  1.0000 0.1460545836
H   H12       1.0  0.63390  0.62600  0.60050  1.0000 0.1460545836
H   H13       1.0  0.63130  0.06960  0.88090  1.0000 0.1216619597
H   H14       1.0  0.18870  0.75040  0.11910  1.0000 0.1216619597
H   H15       1.0  0.24960  0.36870  0.43830  1.0000 0.1216619597
H   H16       1.0  0.93040  0.81130  0.56170  1.0000 0.1216619597
H   H17       1.0  0.47690  0.97690  0.75760  1.0000 0.1430269637
H   H18       1.0  0.21930  0.71930  0.24240  1.0000 0.1460545836
H   H19       1.0  0.28070  0.52310  0.50000  1.0000 0.1430269637
H   H20       1.0  0.02310  0.78070  0.50000  1.0000 0.1460545836
H   H21       1.0  0.55470  0.80160  0.59290  1.0000 0.1597228092
H   H22       1.0  0.20870  0.96180  0.40710  1.0000 0.1597228092
H   H23       1.0  0.03820  0.44530  0.24690  1.0000 0.1597228092
H   H24       1.0  0.19840  0.79130  0.75310  1.0000 0.1597228092
H   H25       1.0  0.70290  0.89860  0.72350  1.0000 0.1098074247
H   H26       1.0  0.17510  0.97940  0.27650  1.0000 0.1098074247
H   H27       1.0  0.02060  0.29710  0.19570  1.0000 0.1098074247
H   H28       1.0  0.10140  0.82490  0.80430  1.0000 0.1098074247
H   H29       1.0  0.33630  0.88860  0.60350  1.0000 0.1036952199
H   H30       1.0  0.28510  0.73280  0.39650  1.0000 0.1036952199
H   H31       1.0  0.26720  0.66370  0.55230  1.0000 0.1036952199
H   H32       1.0  0.11140  0.71490  0.44770  1.0000 0.1036952199
H   H33       1.0  0.34910  0.83480  0.65730  1.0000 0.1098074247
H   H34       1.0  0.17750  0.69180  0.34270  1.0000 0.1098074247
H   H35       1.0  0.30820  0.65090  0.48570  1.0000 0.1098074247
H   H36       1.0  0.16520  0.82250  0.51430  1.0000 0.1098074247
H   H37       1.0  0.93270  0.28570  0.37660  1.0000 0.1430269637
H   H38       1.0  0.90910  0.55610  0.62340  1.0000 0.1430269637
H   H39       1.0  0.71430  0.09090  0.64700  1.0000 0.1430269637
H   H40       1.0  0.44390  0.06730  0.35300  1.0000 0.1430269637
H   H41       1.0  0.88510  0.29470  0.23580  1.0000 0.1216619597
H   H42       1.0  0.05890  0.64930  0.76420  1.0000 0.1216619597
H   H43       1.0  0.70530  0.94110  0.59040  1.0000 0.1216619597
H   H44       1.0  0.35070  0.11490  0.40960  1.0000 0.1216619597
H   H45       1.0  0.72450  0.21660  0.10050  1.0000 0.1460545836
H   H46       1.0  0.11610  0.62400  0.89950  1.0000 0.1460545836
H   H47       1.0  0.78340  0.88390  0.50790  1.0000 0.1460545836
H   H48       1.0  0.37600  0.27550  0.49210  1.0000 0.1460545836
H   H49       1.0  0.50040  0.88130  0.06170  1.0000 0.1216619597
H   H50       1.0  0.81960  0.43870  0.93830  1.0000 0.1216619597
H   H51       1.0  0.11870  0.18040  0.61910  1.0000 0.1216619597
H   H52       1.0  0.56130  0.49960  0.38090  1.0000 0.1216619597
H   H53       1.0  0.46930  0.72690  0.00000  1.0000 0.1430269637
H   H54       1.0  0.72690  0.46930  0.00000  1.0000 0.1430269637
H   H55       1.0  0.27310  0.27310  0.74240  1.0000 0.1430269637
H   H56       1.0  0.53070  0.53070  0.25760  1.0000 0.1430269637
H   H57       1.0  0.71180  0.80470  0.25310  1.0000 0.1597228092
H   H58       1.0  0.55160  0.45870  0.74690  1.0000 0.1597228092
H   H59       1.0  0.19530  0.44840  0.90710  1.0000 0.1597228092
H   H60       1.0  0.54130  0.28820  0.09290  1.0000 0.1597228092
H   H61       1.0  0.72940  0.95290  0.30430  1.0000 0.1098074247
H   H62       1.0  0.64860  0.42510  0.69570  1.0000 0.1098074247
H   H63       1.0  0.04710  0.35140  0.77650  1.0000 0.1098074247
H   H64       1.0  0.57490  0.27060  0.22350  1.0000 0.1098074247
H   H65       1.0  0.48280  0.58630  0.94770  1.0000 0.1036952199
H   H66       1.0  0.63860  0.53510  0.05230  1.0000 0.1036952199
H   H67       1.0  0.41370  0.36140  0.89650  1.0000 0.1036952199
H   H68       1.0  0.46490  0.51720  0.10350  1.0000 0.1036952199
H   H69       1.0  0.44180  0.59910  0.01430  1.0000 0.1098074247
H   H70       1.0  0.58480  0.42750  0.98570  1.0000 0.1098074247
H   H71       1.0  0.40090  0.41520  0.84270  1.0000 0.1098074247
H   H72       1.0  0.57250  0.55820  0.15730  1.0000 0.1098074247
C   C1        1.0  0.92250  0.02330  0.83700  1.0000 0.5294934795
C   C2        1.0  0.18630  0.08550  0.16300  1.0000 0.5294934795
C   C3        1.0  0.91450  0.07750  0.10080  1.0000 0.5294934795
C   C4        1.0  0.97670  0.81370  0.89920  1.0000 0.5294934795
C   C5        1.0  0.94310  0.12510  0.88080  1.0000 0.1460545836
C   C6        1.0  0.24430  0.06230  0.11920  1.0000 0.1460545836
C   C7        1.0  0.93770  0.05690  0.18200  1.0000 0.1460545836
C   C8        1.0  0.87490  0.75570  0.81800  1.0000 0.1460545836
C   C9        1.0  0.00130  0.18190  0.87920  1.0000 -0.162427017
C   C10       1.0  0.30270  0.12210  0.12080  1.0000 -0.162427017
C   C11       1.0  0.87790  0.99870  0.18060  1.0000 -0.162427017
C   C12       1.0  0.81810  0.69730  0.81940  1.0000 -0.162427017
C   C13       1.0  0.00930  0.27130  0.91540  1.0000 -0.0291763772
C   C14       1.0  0.35590  0.09390  0.08460  1.0000 -0.0291763772
C   C15       1.0  0.90610  0.99070  0.26200  1.0000 -0.0291763772
C   C16       1.0  0.72870  0.64410  0.73800  1.0000 -0.0291763772
C   C17       1.0  0.96070  0.30470  0.96280  1.0000 -0.1125981487
C   C18       1.0  0.34190  0.99790  0.03720  1.0000 -0.1125981487
C   C19       1.0  0.00210  0.03930  0.34400  1.0000 -0.1125981487
C   C20       1.0  0.69530  0.65810  0.65600  1.0000 -0.1125981487
C   C21       1.0  0.90620  0.24540  0.96420  1.0000 0.0875900895
C   C22       1.0  0.28120  0.94200  0.03580  1.0000 0.0875900895
C   C23       1.0  0.05800  0.09380  0.33920  1.0000 0.0875900895
C   C24       1.0  0.75460  0.71880  0.66080  1.0000 0.0875900895
C   C25       1.0  0.84880  0.26780  0.00680  1.0000 0.5196311162
C   C26       1.0  0.26100  0.84200  0.99320  1.0000 0.5196311162
C   C27       1.0  0.15800  0.15120  0.41900  1.0000 0.5196311162
C   C28       1.0  0.73220  0.73900  0.58100  1.0000 0.5196311162
C   C29       1.0  0.61540  0.01480  0.82160  1.0000 0.1261731931
C   C30       1.0  0.19320  0.79380  0.17840  1.0000 0.1261731931
C   C31       1.0  0.20620  0.38460  0.39940  1.0000 0.1261731931
C   C32       1.0  0.98520  0.80680  0.60060  1.0000 0.1261731931
C   C33       1.0  0.52200  0.95910  0.74850  1.0000 -0.2784441165
C   C34       1.0  0.21060  0.77350  0.25150  1.0000 -0.2784441165
C   C35       1.0  0.22650  0.47800  0.43710  1.0000 -0.2784441165
C   C36       1.0  0.04090  0.78940  0.56290  1.0000 -0.2784441165
C   C37       1.0  0.49870  0.87720  0.66270  1.0000 0.2791343168
C   C38       1.0  0.21450  0.83600  0.33730  1.0000 0.2791343168
C   C39       1.0  0.16400  0.50130  0.37850  1.0000 0.2791343168
C   C40       1.0  0.12280  0.78550  0.62150  1.0000 0.2791343168
C   C41       1.0  0.56790  0.85540  0.65150  1.0000 -0.2496452662
C   C42       1.0  0.20390  0.91640  0.34850  1.0000 -0.2496452662
C   C43       1.0  0.08360  0.43210  0.28750  1.0000 -0.2496452662
C   C44       1.0  0.14460  0.79610  0.71250  1.0000 -0.2496452662
C   C45       1.0  0.65630  0.91560  0.72950  1.0000 0.0794639014
C   C46       1.0  0.18610  0.92680  0.27050  1.0000 0.0794639014
C   C47       1.0  0.07320  0.34370  0.25930  1.0000 0.0794639014
C   C48       1.0  0.08440  0.81390  0.74070  1.0000 0.0794639014
C   C49       1.0  0.33940  0.83100  0.59640  1.0000 -0.0816072035
C   C50       1.0  0.23460  0.74300  0.40360  1.0000 -0.0816072035
C   C51       1.0  0.25700  0.66060  0.49160  1.0000 -0.0816072035
C   C52       1.0  0.16900  0.76540  0.50840  1.0000 -0.0816072035
C   C53       1.0  0.25000  0.75000  0.50000  1.0000 0.0456495755
C   C54       1.0  0.83550  0.17250  0.39920  1.0000 0.5294934795
C   C55       1.0  0.77330  0.43630  0.60080  1.0000 0.5294934795
C   C56       1.0  0.82750  0.22670  0.66300  1.0000 0.5294934795
C   C57       1.0  0.56370  0.16450  0.33700  1.0000 0.5294934795
C   C58       1.0  0.81230  0.19310  0.31800  1.0000 0.1460545836
C   C59       1.0  0.87510  0.49430  0.68200  1.0000 0.1460545836
C   C60       1.0  0.80690  0.12490  0.61920  1.0000 0.1460545836
C   C61       1.0  0.50570  0.18770  0.38080  1.0000 0.1460545836
C   C62       1.0  0.87210  0.25130  0.31940  1.0000 -0.162427017
C   C63       1.0  0.93190  0.55270  0.68060  1.0000 -0.162427017
C   C64       1.0  0.74870  0.06810  0.62080  1.0000 -0.162427017
C   C65       1.0  0.44730  0.12790  0.37920  1.0000 -0.162427017
C   C66       1.0  0.84390  0.25930  0.23800  1.0000 -0.0291763772
C   C67       1.0  0.02130  0.60590  0.76200  1.0000 -0.0291763772
C   C68       1.0  0.74070  0.97870  0.58460  1.0000 -0.0291763772
C   C69       1.0  0.39410  0.15610  0.41540  1.0000 -0.0291763772
C   C70       1.0  0.74790  0.21070  0.15600  1.0000 -0.1125981487
C   C71       1.0  0.05470  0.59190  0.84400  1.0000 -0.1125981487
C   C72       1.0  0.78930  0.94530  0.53720  1.0000 -0.1125981487
C   C73       1.0  0.40810  0.25210  0.46280  1.0000 -0.1125981487
C   C74       1.0  0.69200  0.15620  0.16080  1.0000 0.0875900895
C   C75       1.0  0.99540  0.53120  0.83920  1.0000 0.0875900895
C   C76       1.0  0.84380  0.00460  0.53580  1.0000 0.0875900895
C   C77       1.0  0.46880  0.30800  0.46420  1.0000 0.0875900895
C   C78       1.0  0.59200  0.09880  0.08100  1.0000 0.5196311162
C   C79       1.0  0.01780  0.51100  0.91900  1.0000 0.5196311162
C   C80       1.0  0.90120  0.98220  0.49320  1.0000 0.5196311162
C   C81       1.0  0.48900  0.40800  0.50680  1.0000 0.5196311162
C   C82       1.0  0.54380  0.86540  0.10060  1.0000 0.1261731931
C   C83       1.0  0.76480  0.44320  0.89940  1.0000 0.1261731931
C   C84       1.0  0.13460  0.23520  0.67840  1.0000 0.1261731931
C   C85       1.0  0.55680  0.45620  0.32160  1.0000 0.1261731931
C   C86       1.0  0.52350  0.77200  0.06290  1.0000 -0.2784441165
C   C87       1.0  0.70910  0.46060  0.93710  1.0000 -0.2784441165
C   C88       1.0  0.22800  0.29090  0.75150  1.0000 -0.2784441165
C   C89       1.0  0.53940  0.47650  0.24850  1.0000 -0.2784441165
C   C90       1.0  0.58600  0.74870  0.12150  1.0000 0.2791343168
C   C91       1.0  0.62720  0.46450  0.87850  1.0000 0.2791343168
C   C92       1.0  0.25130  0.37280  0.83730  1.0000 0.2791343168
C   C93       1.0  0.53550  0.41400  0.16270  1.0000 0.2791343168
C   C94       1.0  0.66640  0.81790  0.21250  1.0000 -0.2496452662
C   C95       1.0  0.60540  0.45390  0.78750  1.0000 -0.2496452662
C   C96       1.0  0.18210  0.39460  0.84850  1.0000 -0.2496452662
C   C97       1.0  0.54610  0.33360  0.15150  1.0000 -0.2496452662
C   C98       1.0  0.67680  0.90630  0.24070  1.0000 0.0794639014
C   C99       1.0  0.66560  0.43610  0.75930  1.0000 0.0794639014
C   C100      1.0  0.09370  0.33440  0.77050  1.0000 0.0794639014
C   C101      1.0  0.56390  0.32320  0.22950  1.0000 0.0794639014
C   C102      1.0  0.49300  0.58940  0.00840  1.0000 -0.0816072035
C   C103      1.0  0.58100  0.48460  0.99160  1.0000 -0.0816072035
C   C104      1.0  0.41060  0.41900  0.90360  1.0000 -0.0816072035
C   C105      1.0  0.51540  0.50700  0.09640  1.0000 -0.0816072035
C   C106      1.0  0.50000  0.50000  0.00000  1.0000 0.044789488
N   N1        1.0  0.68190  0.99570  0.81280  1.0000 -0.2392749465
N   N2        1.0  0.18290  0.86910  0.18720  1.0000 -0.2392749465
N   N3        1.0  0.13090  0.31810  0.31380  1.0000 -0.2392749465
N   N4        1.0  0.00430  0.81710  0.68620  1.0000 -0.2392749465
N   N5        1.0  0.89850  0.15720  0.92210  1.0000 -0.2784441165
N   N6        1.0  0.23510  0.97640  0.07790  1.0000 -0.2784441165
N   N7        1.0  0.02360  0.10150  0.25870  1.0000 -0.2784441165
N   N8        1.0  0.84280  0.76490  0.74130  1.0000 -0.2784441165
N   N9        1.0  0.61910  0.93190  0.18620  1.0000 -0.2392749465
N   N10       1.0  0.74570  0.43290  0.81380  1.0000 -0.2392749465
N   N11       1.0  0.06810  0.25430  0.68720  1.0000 -0.2392749465
N   N12       1.0  0.56710  0.38090  0.31280  1.0000 -0.2392749465
N   N13       1.0  0.72640  0.14850  0.24130  1.0000 -0.2784441165
N   N14       1.0  0.90720  0.48510  0.75870  1.0000 -0.2784441165
N   N15       1.0  0.85150  0.09280  0.57790  1.0000 -0.2784441165
N   N16       1.0  0.51490  0.27360  0.42210  1.0000 -0.2784441165
O   O1        1.0  0.86897  0.98337  0.84660  1.0000 -0.4973612628
O   O2        1.0  0.13677  0.02237  0.15340  1.0000 -0.4973612628
O   O3        1.0  0.97763  0.13103  0.11440  1.0000 -0.4973612628
O   O4        1.0  0.01663  0.86323  0.88560  1.0000 -0.4973612628
O   O5        1.0  0.96237  0.98617  0.79440  1.0000 -0.4816132761
O   O6        1.0  0.19177  0.16797  0.20560  1.0000 -0.4816132761
O   O7        1.0  0.83203  0.03763  0.02380  1.0000 -0.4816132761
O   O8        1.0  0.01383  0.80823  0.97620  1.0000 -0.4816132761
O   O9        1.0  0.80190  0.20350  0.00060  1.0000 -0.5357160061
O   O10       1.0  0.20290  0.80130  0.99940  1.0000 -0.5357160061
O   O11       1.0  0.19870  0.19810  0.40160  1.0000 -0.5357160061
O   O12       1.0  0.79650  0.79710  0.59840  1.0000 -0.5357160061
O   O13       1.0  0.85600  0.35080  0.05120  1.0000 -0.5535299047
O   O14       1.0  0.29960  0.80480  0.94880  1.0000 -0.5535299047
O   O15       1.0  0.19520  0.14400  0.49480  1.0000 -0.5535299047
O   O16       1.0  0.64920  0.70040  0.50520  1.0000 -0.5535299047
O   O17       1.0  0.41206  0.81536  0.58530  1.0000 -0.1864198218
O   O18       1.0  0.23006  0.82676  0.41470  1.0000 -0.1864198218
O   O19       1.0  0.17324  0.58794  0.40330  1.0000 -0.1864198218
O   O20       1.0  0.18464  0.76994  0.59670  1.0000 -0.1864198218
O   O21       1.0  0.77237  0.11897  0.38560  1.0000 -0.4973612628
O   O22       1.0  0.73337  0.38677  0.61440  1.0000 -0.4973612628
O   O23       1.0  0.88103  0.26663  0.65340  1.0000 -0.4973612628
O   O24       1.0  0.61323  0.22763  0.34660  1.0000 -0.4973612628
O   O25       1.0  0.91797  0.21237  0.47620  1.0000 -0.4816132761
O   O26       1.0  0.73617  0.44177  0.52380  1.0000 -0.4816132761
O   O27       1.0  0.78763  0.26383  0.70560  1.0000 -0.4816132761
O   O28       1.0  0.55823  0.08203  0.29440  1.0000 -0.4816132761
O   O29       1.0  0.55130  0.05190  0.09840  1.0000 -0.5357160061
O   O30       1.0  0.95350  0.45290  0.90160  1.0000 -0.5357160061
O   O31       1.0  0.94810  0.04650  0.49940  1.0000 -0.5357160061
O   O32       1.0  0.54710  0.44870  0.50060  1.0000 -0.5357160061
O   O33       1.0  0.55480  0.10600  0.00520  1.0000 -0.5535299047
O   O34       1.0  0.10080  0.54960  0.99480  1.0000 -0.5535299047
O   O35       1.0  0.89400  0.89920  0.44880  1.0000 -0.5535299047
O   O36       1.0  0.45040  0.44520  0.55120  1.0000 -0.5535299047
O   O37       1.0  0.57676  0.66206  0.09670  1.0000 -0.1864198218
O   O38       1.0  0.56536  0.48006  0.90330  1.0000 -0.1864198218
O   O39       1.0  0.33794  0.43464  0.91470  1.0000 -0.1864198218
O   O40       1.0  0.51994  0.42324  0.08530  1.0000 -0.1864198218
