# DDEC6 charges by PACMAN v1.1 (https://github.com/mtap-research/PACMAN-charge/)
data_2006[Zn][dia]3[ASR]10
_chemical_formula_sum              "Zn12 H24 C24 O48"
_cell_length_a       11.2958
_cell_length_b       9.825
_cell_length_c       18.3296
_cell_angle_alpha    90
_cell_angle_beta     126.534
_cell_angle_gamma    90

_symmetry_space_group_name_H-M    "P 1"
_symmetry_Int_Tables_number       1

loop_
  _symmetry_equiv_pos_as_xyz
  'x, y, z'

loop_
  _atom_site_type_symbol
  _atom_site_label
  _atom_site_symmetry_multiplicity
  _atom_site_fract_x
  _atom_site_fract_y
  _atom_site_fract_z
  _atom_site_occupancy
  _atom_site_charge
Zn  Zn1       1.0  0.62524  0.92633  0.86829  1.0000 0.9500870486
Zn  Zn2       1.0  0.37476  0.42633  0.63171  1.0000 0.9500870486
Zn  Zn3       1.0  0.37476  0.07367  0.13171  1.0000 0.9500870486
Zn  Zn4       1.0  0.62524  0.57367  0.36829  1.0000 0.9500870486
Zn  Zn5       1.0  0.43380  0.11504  0.69208  1.0000 0.9236575295
Zn  Zn6       1.0  0.56620  0.61504  0.80792  1.0000 0.9236575295
Zn  Zn7       1.0  0.56620  0.88496  0.30792  1.0000 0.9236575295
Zn  Zn8       1.0  0.43380  0.38496  0.19208  1.0000 0.9236575295
Zn  Zn9       1.0  0.50000  0.00000  0.00000  1.0000 0.9500870486
Zn  Zn10      1.0  0.50000  0.50000  0.50000  1.0000 0.9500870486
Zn  Zn11      1.0  0.00000  0.00000  0.00000  1.0000 0.9500870486
Zn  Zn12      1.0  1.00000  0.50000  0.50000  1.0000 0.9500870486
H   H1        1.0  0.48730  0.76270  0.63180  1.0000 0.0894977544
H   H2        1.0  0.51270  0.26270  0.86820  1.0000 0.0894977544
H   H3        1.0  0.51270  0.23730  0.36820  1.0000 0.0894977544
H   H4        1.0  0.48730  0.73730  0.13180  1.0000 0.0894977544
H   H5        1.0  0.21820  0.04980  0.74010  1.0000 0.0894977544
H   H6        1.0  0.78180  0.54980  0.75990  1.0000 0.0894977544
H   H7        1.0  0.78180  0.95020  0.25990  1.0000 0.0894977544
H   H8        1.0  0.21820  0.45020  0.24010  1.0000 0.0894977544
H   H9        1.0  0.51460  0.61810  0.95380  1.0000 0.082102994
H   H10       1.0  0.48540  0.11810  0.54620  1.0000 0.082102994
H   H11       1.0  0.48540  0.38190  0.04620  1.0000 0.082102994
H   H12       1.0  0.51460  0.88190  0.45380  1.0000 0.082102994
H   H13       1.0  0.75630  0.20740  0.77720  1.0000 0.0894977544
H   H14       1.0  0.24370  0.70740  0.72280  1.0000 0.0894977544
H   H15       1.0  0.24370  0.79260  0.22280  1.0000 0.0894977544
H   H16       1.0  0.75630  0.29260  0.27720  1.0000 0.0894977544
H   H17       1.0  0.76700  0.16360  0.07120  1.0000 0.082102994
H   H18       1.0  0.23300  0.66360  0.42880  1.0000 0.082102994
H   H19       1.0  0.23300  0.83640  0.92880  1.0000 0.082102994
H   H20       1.0  0.76700  0.33640  0.57120  1.0000 0.082102994
H   H21       1.0  0.97630  0.70650  0.97820  1.0000 0.0894977544
H   H22       1.0  0.02370  0.20650  0.52180  1.0000 0.0894977544
H   H23       1.0  0.02370  0.29350  0.02180  1.0000 0.0894977544
H   H24       1.0  0.97630  0.79350  0.47820  1.0000 0.0894977544
C   C1        1.0  0.49570  0.83460  0.66920  1.0000 0.4876808901
C   C2        1.0  0.50430  0.33460  0.83080  1.0000 0.4876808901
C   C3        1.0  0.50430  0.16540  0.33080  1.0000 0.4876808901
C   C4        1.0  0.49570  0.66540  0.16920  1.0000 0.4876808901
C   C5        1.0  0.31190  0.02360  0.79290  1.0000 0.4758263757
C   C6        1.0  0.68810  0.52360  0.70710  1.0000 0.4727715118
C   C7        1.0  0.68810  0.97640  0.20710  1.0000 0.4758263757
C   C8        1.0  0.31190  0.47640  0.29290  1.0000 0.4758263757
C   C9        1.0  0.52460  0.71270  0.94790  1.0000 0.4727715118
C   C10       1.0  0.47540  0.21270  0.55210  1.0000 0.4727715118
C   C11       1.0  0.47540  0.28730  0.05210  1.0000 0.4727715118
C   C12       1.0  0.52460  0.78730  0.44790  1.0000 0.4727715118
C   C13       1.0  0.77270  0.14190  0.82050  1.0000 0.4727715118
C   C14       1.0  0.22730  0.64190  0.67950  1.0000 0.4727715118
C   C15       1.0  0.22730  0.85810  0.17950  1.0000 0.4727715118
C   C16       1.0  0.77270  0.35810  0.32050  1.0000 0.4727715118
C   C17       1.0  0.77400  0.10570  0.03240  1.0000 0.4876808901
C   C18       1.0  0.22600  0.60570  0.46760  1.0000 0.4876808901
C   C19       1.0  0.22600  0.89430  0.96760  1.0000 0.4876808901
C   C20       1.0  0.77400  0.39430  0.53240  1.0000 0.4876808901
C   C21       1.0  0.87360  0.72480  0.93930  1.0000 0.4953119089
C   C22       1.0  0.12640  0.22480  0.56070  1.0000 0.4953119089
C   C23       1.0  0.12640  0.27520  0.06070  1.0000 0.4953119089
C   C24       1.0  0.87360  0.77520  0.43930  1.0000 0.4953119089
O   O1        1.0  0.55990  0.80720  0.75261  1.0000 -0.5479848355
O   O2        1.0  0.44010  0.30720  0.74739  1.0000 -0.5479848355
O   O3        1.0  0.44010  0.19280  0.24739  1.0000 -0.5479848355
O   O4        1.0  0.55990  0.69280  0.25261  1.0000 -0.5479848355
O   O5        1.0  0.44270  0.94650  0.63191  1.0000 -0.4923586543
O   O6        1.0  0.55730  0.44650  0.86809  1.0000 -0.4923586543
O   O7        1.0  0.55730  0.05350  0.36809  1.0000 -0.4923586543
O   O8        1.0  0.44270  0.55350  0.13191  1.0000 -0.4923586543
O   O9        1.0  0.41470  0.01280  0.78469  1.0000 -0.5362564693
O   O10       1.0  0.58530  0.51280  0.71531  1.0000 -0.5362564693
O   O11       1.0  0.58530  0.98720  0.21531  1.0000 -0.5362564693
O   O12       1.0  0.41470  0.48720  0.28469  1.0000 -0.5362564693
O   O13       1.0  0.32020  0.00360  0.86240  1.0000 -0.4923586543
O   O14       1.0  0.67980  0.50360  0.63760  1.0000 -0.4923586543
O   O15       1.0  0.67980  0.99640  0.13760  1.0000 -0.4923586543
O   O16       1.0  0.32020  0.49640  0.36240  1.0000 -0.4923586543
O   O17       1.0  0.54290  0.74830  0.88790  1.0000 -0.5479848355
O   O18       1.0  0.45710  0.24830  0.61210  1.0000 -0.5479848355
O   O19       1.0  0.45710  0.25170  0.11210  1.0000 -0.5479848355
O   O20       1.0  0.54290  0.75170  0.38790  1.0000 -0.5479848355
O   O21       1.0  0.51900  0.79080  0.99907  1.0000 -0.4988374208
O   O22       1.0  0.48100  0.29080  0.50093  1.0000 -0.4988374208
O   O23       1.0  0.48100  0.20920  0.00093  1.0000 -0.4988374208
O   O24       1.0  0.51900  0.70920  0.49907  1.0000 -0.4988374208
O   O25       1.0  0.65800  0.08730  0.80684  1.0000 -0.5479848355
O   O26       1.0  0.34200  0.58730  0.69316  1.0000 -0.5479848355
O   O27       1.0  0.34200  0.91270  0.19316  1.0000 -0.5479848355
O   O28       1.0  0.65800  0.41270  0.30684  1.0000 -0.5479848355
O   O29       1.0  0.90150  0.11850  0.88370  1.0000 -0.4832625682
O   O30       1.0  0.09850  0.61850  0.61630  1.0000 -0.4832625682
O   O31       1.0  0.09850  0.88150  0.11630  1.0000 -0.4832625682
O   O32       1.0  0.90150  0.38150  0.38370  1.0000 -0.4832625682
O   O33       1.0  0.66150  0.02930  0.97649  1.0000 -0.5563484202
O   O34       1.0  0.33850  0.52930  0.52351  1.0000 -0.5563484202
O   O35       1.0  0.33850  0.97070  0.02351  1.0000 -0.5563484202
O   O36       1.0  0.66150  0.47070  0.47649  1.0000 -0.5563484202
O   O37       1.0  0.88850  0.10940  0.03922  1.0000 -0.4988374208
O   O38       1.0  0.11150  0.60940  0.46078  1.0000 -0.4988374208
O   O39       1.0  0.11150  0.89060  0.96078  1.0000 -0.4988374208
O   O40       1.0  0.88850  0.39060  0.53922  1.0000 -0.4988374208
O   O41       1.0  0.83480  0.84850  0.93511  1.0000 -0.5362564693
O   O42       1.0  0.16520  0.34850  0.56489  1.0000 -0.5362564693
O   O43       1.0  0.16520  0.15150  0.06489  1.0000 -0.5362564693
O   O44       1.0  0.83480  0.65150  0.43511  1.0000 -0.5362564693
O   O45       1.0  0.79190  0.62660  0.89814  1.0000 -0.4988374208
O   O46       1.0  0.20810  0.12660  0.60186  1.0000 -0.4988374208
O   O47       1.0  0.20810  0.37340  0.10186  1.0000 -0.4988374208
O   O48       1.0  0.79190  0.87340  0.39814  1.0000 -0.4988374208
