# DDEC6 charges by PACMAN v1.1 (https://github.com/mtap-research/PACMAN-charge/)
data_2007[Zn][dia]3[ASR]5
_chemical_formula_sum              "Zn12 H88 C136 N8 O48"
_cell_length_a       11.805
_cell_length_b       21.544
_cell_length_c       17.142
_cell_angle_alpha    90
_cell_angle_beta     106.441
_cell_angle_gamma    90

_symmetry_space_group_name_H-M    "P 1"
_symmetry_Int_Tables_number       1

loop_
  _symmetry_equiv_pos_as_xyz
  'x, y, z'

loop_
  _atom_site_type_symbol
  _atom_site_label
  _atom_site_symmetry_multiplicity
  _atom_site_fract_x
  _atom_site_fract_y
  _atom_site_fract_z
  _atom_site_occupancy
  _atom_site_charge
Zn  Zn1       1.0  0.82324  0.57206  0.72725  1.0000 1.0035950785
Zn  Zn2       1.0  0.67676  0.07206  0.27275  1.0000 1.0035950785
Zn  Zn3       1.0  0.17676  0.42794  0.27275  1.0000 1.0035950785
Zn  Zn4       1.0  0.32324  0.92794  0.72725  1.0000 1.0035950785
Zn  Zn5       1.0  0.64024  0.62040  0.82852  1.0000 0.8116863762
Zn  Zn6       1.0  0.85976  0.12040  0.17148  1.0000 0.8116863762
Zn  Zn7       1.0  0.35976  0.37960  0.17148  1.0000 0.8116863762
Zn  Zn8       1.0  0.14024  0.87960  0.82852  1.0000 0.8116863762
Zn  Zn9       1.0  0.06487  0.53252  0.36568  1.0000 0.8116863762
Zn  Zn10      1.0  0.43513  0.03252  0.63432  1.0000 0.8116863762
Zn  Zn11      1.0  0.93513  0.46748  0.63432  1.0000 0.8116863762
Zn  Zn12      1.0  0.56487  0.96748  0.36568  1.0000 0.8116863762
H   H1        1.0  0.40910  0.67980  0.80160  1.0000 0.1179432831
H   H2        1.0  0.09090  0.17980  0.19840  1.0000 0.1179432831
H   H3        1.0  0.59090  0.32020  0.19840  1.0000 0.1179432831
H   H4        1.0  0.90910  0.82020  0.80160  1.0000 0.1179432831
H   H5        1.0  0.28380  0.71770  0.87210  1.0000 0.1413431504
H   H6        1.0  0.21620  0.21770  0.12790  1.0000 0.1413431504
H   H7        1.0  0.71620  0.28230  0.12790  1.0000 0.1413431504
H   H8        1.0  0.78380  0.78230  0.87210  1.0000 0.1413431504
H   H9        1.0  0.33230  0.71110  0.00570  1.0000 0.1281211526
H   H10       1.0  0.16770  0.21110  0.99430  1.0000 0.1281211526
H   H11       1.0  0.66770  0.28890  0.99430  1.0000 0.1281211526
H   H12       1.0  0.83230  0.78890  0.00570  1.0000 0.1281211526
H   H13       1.0  0.50370  0.65530  0.07550  1.0000 0.1281211526
H   H14       1.0  0.99630  0.15530  0.92450  1.0000 0.1281211526
H   H15       1.0  0.49630  0.34470  0.92450  1.0000 0.1281211526
H   H16       1.0  0.00370  0.84470  0.07550  1.0000 0.1281211526
H   H17       1.0  0.62660  0.61740  0.99570  1.0000 0.1179432831
H   H18       1.0  0.87340  0.11740  0.00430  1.0000 0.1179432831
H   H19       1.0  0.37340  0.38260  0.00430  1.0000 0.1179432831
H   H20       1.0  0.12660  0.88260  0.99570  1.0000 0.1179432831
H   H21       1.0  0.09900  0.67050  0.36760  1.0000 0.1179432831
H   H22       1.0  0.40100  0.17050  0.63240  1.0000 0.1179432831
H   H23       1.0  0.90100  0.32950  0.63240  1.0000 0.1179432831
H   H24       1.0  0.59900  0.82950  0.36760  1.0000 0.1179432831
H   H25       1.0  0.03660  0.75690  0.41550  1.0000 0.1281211526
H   H26       1.0  0.46340  0.25690  0.58450  1.0000 0.1281211526
H   H27       1.0  0.96340  0.24310  0.58450  1.0000 0.1281211526
H   H28       1.0  0.53660  0.74310  0.41550  1.0000 0.1281211526
H   H29       1.0  0.89740  0.74910  0.48630  1.0000 0.1179432831
H   H30       1.0  0.60260  0.24910  0.51370  1.0000 0.1179432831
H   H31       1.0  0.10260  0.25090  0.51370  1.0000 0.1179432831
H   H32       1.0  0.39740  0.75090  0.48630  1.0000 0.1179432831
H   H33       1.0  0.83030  0.65220  0.51050  1.0000 0.1413431504
H   H34       1.0  0.66970  0.15220  0.48950  1.0000 0.1413431504
H   H35       1.0  0.16970  0.34780  0.48950  1.0000 0.1413431504
H   H36       1.0  0.33030  0.84780  0.51050  1.0000 0.1413431504
H   H37       1.0  0.89360  0.56780  0.45430  1.0000 0.1179432831
H   H38       1.0  0.60640  0.06780  0.54570  1.0000 0.1179432831
H   H39       1.0  0.10640  0.43220  0.54570  1.0000 0.1179432831
H   H40       1.0  0.39360  0.93220  0.45430  1.0000 0.1179432831
H   H41       1.0  0.10830  0.58410  0.92770  1.0000 0.1281211526
H   H42       1.0  0.39170  0.08410  0.07230  1.0000 0.1281211526
H   H43       1.0  0.89170  0.41590  0.07230  1.0000 0.1281211526
H   H44       1.0  0.60830  0.91590  0.92770  1.0000 0.1281211526
H   H45       1.0  0.26570  0.56330  0.03790  1.0000 0.1086654435
H   H46       1.0  0.23430  0.06330  0.96210  1.0000 0.1086654435
H   H47       1.0  0.73430  0.43670  0.96210  1.0000 0.1086654435
H   H48       1.0  0.76570  0.93670  0.03790  1.0000 0.1086654435
H   H49       1.0  0.23800  0.55310  0.16490  1.0000 0.1179432831
H   H50       1.0  0.26200  0.05310  0.83510  1.0000 0.1179432831
H   H51       1.0  0.76200  0.44690  0.83510  1.0000 0.1179432831
H   H52       1.0  0.73800  0.94690  0.16490  1.0000 0.1179432831
H   H53       1.0  0.89000  0.58260  0.06800  1.0000 0.1179432831
H   H54       1.0  0.61000  0.08260  0.93200  1.0000 0.1179432831
H   H55       1.0  0.11000  0.41740  0.93200  1.0000 0.1179432831
H   H56       1.0  0.39000  0.91740  0.06800  1.0000 0.1179432831
H   H57       1.0  0.57410  0.62120  0.51550  1.0000 0.1179432831
H   H58       1.0  0.92590  0.12120  0.48450  1.0000 0.1179432831
H   H59       1.0  0.42590  0.37880  0.48450  1.0000 0.1179432831
H   H60       1.0  0.07410  0.87880  0.51550  1.0000 0.1179432831
H   H61       1.0  0.40570  0.63730  0.40870  1.0000 0.1086654435
H   H62       1.0  0.09430  0.13730  0.59130  1.0000 0.1086654435
H   H63       1.0  0.59430  0.36270  0.59130  1.0000 0.1086654435
H   H64       1.0  0.90570  0.86270  0.40870  1.0000 0.1086654435
H   H65       1.0  0.34480  0.56300  0.30830  1.0000 0.1281211526
H   H66       1.0  0.15520  0.06300  0.69170  1.0000 0.1281211526
H   H67       1.0  0.65520  0.43700  0.69170  1.0000 0.1281211526
H   H68       1.0  0.84480  0.93700  0.30830  1.0000 0.1281211526
H   H69       1.0  0.62940  0.46090  0.41360  1.0000 0.1179432831
H   H70       1.0  0.87060  0.96090  0.58640  1.0000 0.1179432831
H   H71       1.0  0.37060  0.53910  0.58640  1.0000 0.1179432831
H   H72       1.0  0.12940  0.03910  0.41360  1.0000 0.1179432831
H   H73       1.0  0.19350  0.58480  0.57210  1.0000 0.1179432831
H   H74       1.0  0.30650  0.08480  0.42790  1.0000 0.1179432831
H   H75       1.0  0.80650  0.41520  0.42790  1.0000 0.1179432831
H   H76       1.0  0.69350  0.91520  0.57210  1.0000 0.1179432831
H   H77       1.0  0.32850  0.66080  0.56090  1.0000 0.1086654435
H   H78       1.0  0.17150  0.16080  0.43910  1.0000 0.1086654435
H   H79       1.0  0.67150  0.33920  0.43910  1.0000 0.1086654435
H   H80       1.0  0.82850  0.83920  0.56090  1.0000 0.1086654435
H   H81       1.0  0.33110  0.75500  0.62460  1.0000 0.1179432831
H   H82       1.0  0.16890  0.25500  0.37540  1.0000 0.1179432831
H   H83       1.0  0.66890  0.24500  0.37540  1.0000 0.1179432831
H   H84       1.0  0.83110  0.74500  0.62460  1.0000 0.1179432831
H   H85       1.0  0.08310  0.69560  0.72490  1.0000 0.1281211526
H   H86       1.0  0.41690  0.19560  0.27510  1.0000 0.1281211526
H   H87       1.0  0.91690  0.30440  0.27510  1.0000 0.1281211526
H   H88       1.0  0.58310  0.80440  0.72490  1.0000 0.1281211526
C   C1        1.0  0.43120  0.67570  0.85790  1.0000 0.088432016
C   C2        1.0  0.06880  0.17570  0.14210  1.0000 0.088432016
C   C3        1.0  0.56880  0.32430  0.14210  1.0000 0.088432016
C   C4        1.0  0.93120  0.82430  0.85790  1.0000 0.088432016
C   C5        1.0  0.35430  0.69870  0.90030  1.0000 -0.132764628
C   C6        1.0  0.14570  0.19870  0.09970  1.0000 -0.132764628
C   C7        1.0  0.64570  0.30130  0.09970  1.0000 -0.132764628
C   C8        1.0  0.85430  0.80130  0.90030  1.0000 -0.132764628
C   C9        1.0  0.38090  0.69370  0.97740  1.0000 -0.0484486212
C   C10       1.0  0.11910  0.19370  0.02260  1.0000 -0.0484486212
C   C11       1.0  0.61910  0.30630  0.02260  1.0000 -0.0484486212
C   C12       1.0  0.88090  0.80630  0.97740  1.0000 -0.0484486212
C   C13       1.0  0.48400  0.66180  0.01960  1.0000 -0.1630717422
C   C14       1.0  0.01600  0.16180  0.98040  1.0000 -0.1630717422
C   C15       1.0  0.51600  0.33820  0.98040  1.0000 -0.1630717422
C   C16       1.0  0.98400  0.83820  0.01960  1.0000 -0.1630717422
C   C17       1.0  0.55810  0.63930  0.97040  1.0000 0.088432016
C   C18       1.0  0.94190  0.13930  0.02960  1.0000 0.088432016
C   C19       1.0  0.44190  0.36070  0.02960  1.0000 0.088432016
C   C20       1.0  0.05810  0.86070  0.97040  1.0000 0.088432016
C   C21       1.0  0.04270  0.66667  0.39580  1.0000 0.0636046437
C   C22       1.0  0.45730  0.16667  0.60420  1.0000 0.0636046437
C   C23       1.0  0.95730  0.33333  0.60420  1.0000 0.0636046437
C   C24       1.0  0.54270  0.83333  0.39580  1.0000 0.0636046437
C   C25       1.0  0.00670  0.71840  0.42430  1.0000 -0.1534141431
C   C26       1.0  0.49330  0.21840  0.57570  1.0000 -0.1534141431
C   C27       1.0  0.99330  0.28160  0.57570  1.0000 -0.1534141431
C   C28       1.0  0.50670  0.78160  0.42430  1.0000 -0.1534141431
C   C29       1.0  0.92490  0.71360  0.46660  1.0000 -0.0484486212
C   C30       1.0  0.57510  0.21360  0.53340  1.0000 -0.0484486212
C   C31       1.0  0.07510  0.28640  0.53340  1.0000 -0.0484486212
C   C32       1.0  0.42490  0.78640  0.46660  1.0000 -0.0484486212
C   C33       1.0  0.88360  0.65670  0.48010  1.0000 -0.132764628
C   C34       1.0  0.61640  0.15670  0.51990  1.0000 -0.132764628
C   C35       1.0  0.11640  0.34330  0.51990  1.0000 -0.132764628
C   C36       1.0  0.38360  0.84330  0.48010  1.0000 -0.132764628
C   C37       1.0  0.92360  0.60670  0.44720  1.0000 0.0713705925
C   C38       1.0  0.57640  0.10670  0.55280  1.0000 0.0713705925
C   C39       1.0  0.07640  0.39330  0.55280  1.0000 0.0713705925
C   C40       1.0  0.42360  0.89330  0.44720  1.0000 0.0713705925
C   C41       1.0  0.88220  0.59240  0.91180  1.0000 0.5915398245
C   C42       1.0  0.61780  0.09240  0.08820  1.0000 0.5915398245
C   C43       1.0  0.11780  0.40760  0.08820  1.0000 0.5915398245
C   C44       1.0  0.38220  0.90760  0.91180  1.0000 0.5915398245
C   C45       1.0  0.98380  0.58410  0.98650  1.0000 -0.0375282009
C   C46       1.0  0.51620  0.08410  0.01350  1.0000 -0.0375282009
C   C47       1.0  0.01620  0.41590  0.01350  1.0000 -0.0375282009
C   C48       1.0  0.48380  0.91590  0.98650  1.0000 -0.0375282009
C   C49       1.0  0.09630  0.57920  0.97870  1.0000 -0.1004073442
C   C50       1.0  0.40370  0.07920  0.02130  1.0000 -0.1004073442
C   C51       1.0  0.90370  0.42080  0.02130  1.0000 -0.1004073442
C   C52       1.0  0.59630  0.92080  0.97870  1.0000 -0.1004073442
C   C53       1.0  0.19040  0.56710  0.04430  1.0000 -0.1004073442
C   C54       1.0  0.30960  0.06710  0.95570  1.0000 -0.1004073442
C   C55       1.0  0.80960  0.43290  0.95570  1.0000 -0.1004073442
C   C56       1.0  0.69040  0.93290  0.04430  1.0000 -0.1004073442
C   C57       1.0  0.17380  0.56060  0.11990  1.0000 -0.1004073442
C   C58       1.0  0.32620  0.06060  0.88010  1.0000 -0.1004073442
C   C59       1.0  0.82620  0.43940  0.88010  1.0000 -0.1004073442
C   C60       1.0  0.67380  0.93940  0.11990  1.0000 -0.1004073442
C   C61       1.0  0.05960  0.56520  0.12930  1.0000 -0.0121327896
C   C62       1.0  0.44040  0.06520  0.87070  1.0000 -0.0121327896
C   C63       1.0  0.94040  0.43480  0.87070  1.0000 -0.0121327896
C   C64       1.0  0.55960  0.93480  0.12930  1.0000 -0.0121327896
C   C65       1.0  0.96550  0.57800  0.06220  1.0000 -0.1104055809
C   C66       1.0  0.53450  0.07800  0.93780  1.0000 -0.1104055809
C   C67       1.0  0.03450  0.42200  0.93780  1.0000 -0.1104055809
C   C68       1.0  0.46550  0.92200  0.06220  1.0000 -0.1104055809
C   C69       1.0  0.03970  0.55580  0.21130  1.0000 0.5630242472
C   C70       1.0  0.46030  0.05580  0.78870  1.0000 0.5630242472
C   C71       1.0  0.96030  0.44420  0.78870  1.0000 0.5630242472
C   C72       1.0  0.53970  0.94420  0.21130  1.0000 0.5630242472
C   C73       1.0  0.72280  0.52610  0.54730  1.0000 0.5687722807
C   C74       1.0  0.77720  0.02610  0.45270  1.0000 0.5687722807
C   C75       1.0  0.27720  0.47390  0.45270  1.0000 0.5687722807
C   C76       1.0  0.22280  0.97390  0.54730  1.0000 0.5687722807
C   C77       1.0  0.61940  0.53880  0.47700  1.0000 -0.0484486212
C   C78       1.0  0.88060  0.03880  0.52300  1.0000 -0.0484486212
C   C79       1.0  0.38060  0.46120  0.52300  1.0000 -0.0484486212
C   C80       1.0  0.11940  0.96120  0.47700  1.0000 -0.0484486212
C   C81       1.0  0.55150  0.59180  0.47430  1.0000 -0.1004073442
C   C82       1.0  0.94850  0.09180  0.52570  1.0000 -0.1004073442
C   C83       1.0  0.44850  0.40820  0.52570  1.0000 -0.1004073442
C   C84       1.0  0.05150  0.90820  0.47430  1.0000 -0.1004073442
C   C85       1.0  0.44980  0.60130  0.41050  1.0000 -0.1104055809
C   C86       1.0  0.05020  0.10130  0.58950  1.0000 -0.1104055809
C   C87       1.0  0.55020  0.39870  0.58950  1.0000 -0.1104055809
C   C88       1.0  0.94980  0.89870  0.41050  1.0000 -0.1104055809
C   C89       1.0  0.41430  0.55740  0.34990  1.0000 -0.0862996726
C   C90       1.0  0.08570  0.05740  0.65010  1.0000 -0.0862996726
C   C91       1.0  0.58570  0.44260  0.65010  1.0000 -0.0862996726
C   C92       1.0  0.91430  0.94260  0.34990  1.0000 -0.0862996726
C   C93       1.0  0.48140  0.50570  0.35120  1.0000 -0.0151149993
C   C94       1.0  0.01860  0.00570  0.64880  1.0000 -0.0151149993
C   C95       1.0  0.51860  0.49430  0.64880  1.0000 -0.0151149993
C   C96       1.0  0.98140  0.99430  0.35120  1.0000 -0.0151149993
C   C97       1.0  0.58400  0.49610  0.41380  1.0000 -0.1104055809
C   C98       1.0  0.91600  0.99610  0.58620  1.0000 -0.1104055809
C   C99       1.0  0.41600  0.50390  0.58620  1.0000 -0.1104055809
C   C100      1.0  0.08400  0.00390  0.41380  1.0000 -0.1104055809
C   C101      1.0  0.44470  0.45660  0.28690  1.0000 0.5687722807
C   C102      1.0  0.05530  0.95660  0.71310  1.0000 0.5687722807
C   C103      1.0  0.55530  0.54340  0.71310  1.0000 0.5687722807
C   C104      1.0  0.94470  0.04340  0.28690  1.0000 0.5687722807
C   C105      1.0  0.04350  0.58290  0.66220  1.0000 0.5780755525
C   C106      1.0  0.45650  0.08290  0.33780  1.0000 0.5780755525
C   C107      1.0  0.95650  0.41710  0.33780  1.0000 0.5780755525
C   C108      1.0  0.54350  0.91710  0.66220  1.0000 0.5780755525
C   C109      1.0  0.12700  0.63310  0.65170  1.0000 -0.0258234347
C   C110      1.0  0.37300  0.13310  0.34830  1.0000 -0.0258234347
C   C111      1.0  0.87300  0.36690  0.34830  1.0000 -0.0258234347
C   C112      1.0  0.62700  0.86690  0.65170  1.0000 -0.0258234347
C   C113      1.0  0.19860  0.62210  0.60030  1.0000 -0.1004073442
C   C114      1.0  0.30140  0.12210  0.39970  1.0000 -0.1004073442
C   C115      1.0  0.80140  0.37790  0.39970  1.0000 -0.1004073442
C   C116      1.0  0.69860  0.87790  0.60030  1.0000 -0.1004073442
C   C117      1.0  0.27750  0.66790  0.59250  1.0000 -0.1004073442
C   C118      1.0  0.22250  0.16790  0.40750  1.0000 -0.1004073442
C   C119      1.0  0.72250  0.33210  0.40750  1.0000 -0.1004073442
C   C120      1.0  0.77750  0.83210  0.59250  1.0000 -0.1004073442
C   C121      1.0  0.27990  0.72410  0.63170  1.0000 -0.1104055809
C   C122      1.0  0.22010  0.22410  0.36830  1.0000 -0.1104055809
C   C123      1.0  0.72010  0.27590  0.36830  1.0000 -0.1104055809
C   C124      1.0  0.77990  0.77590  0.63170  1.0000 -0.1104055809
C   C125      1.0  0.20720  0.73560  0.68160  1.0000 -0.0484486212
C   C126      1.0  0.29280  0.23560  0.31840  1.0000 -0.0484486212
C   C127      1.0  0.79280  0.26440  0.31840  1.0000 -0.0484486212
C   C128      1.0  0.70720  0.76440  0.68160  1.0000 -0.0484486212
C   C129      1.0  0.13150  0.68900  0.69120  1.0000 -0.1229674424
C   C130      1.0  0.36850  0.18900  0.30880  1.0000 -0.1229674424
C   C131      1.0  0.86850  0.31100  0.30880  1.0000 -0.1229674424
C   C132      1.0  0.63150  0.81100  0.69120  1.0000 -0.1229674424
C   C133      1.0  0.21350  0.79620  0.72400  1.0000 0.5687722807
C   C134      1.0  0.28650  0.29620  0.27600  1.0000 0.5687722807
C   C135      1.0  0.78650  0.20380  0.27600  1.0000 0.5687722807
C   C136      1.0  0.71350  0.70380  0.72400  1.0000 0.5687722807
N   N1        1.0  0.53170  0.64890  0.89300  1.0000 -0.208882844
N   N2        1.0  0.96830  0.14890  0.10700  1.0000 -0.208882844
N   N3        1.0  0.46830  0.35110  0.10700  1.0000 -0.208882844
N   N4        1.0  0.03170  0.85110  0.89300  1.0000 -0.208882844
N   N5        1.0  0.00370  0.61000  0.40510  1.0000 -0.2161653544
N   N6        1.0  0.49630  0.11000  0.59490  1.0000 -0.2161653544
N   N7        1.0  0.99630  0.39000  0.59490  1.0000 -0.2161653544
N   N8        1.0  0.50370  0.89000  0.40510  1.0000 -0.2161653544
O   O1        1.0  0.78290  0.60740  0.92100  1.0000 -0.5489955718
O   O2        1.0  0.71710  0.10740  0.07900  1.0000 -0.5609261051
O   O3        1.0  0.21710  0.39260  0.07900  1.0000 -0.5609261051
O   O4        1.0  0.28290  0.89260  0.92100  1.0000 -0.5489955718
O   O5        1.0  0.90350  0.58290  0.84490  1.0000 -0.5489955718
O   O6        1.0  0.59650  0.08290  0.15510  1.0000 -0.5489955718
O   O7        1.0  0.09650  0.41710  0.15510  1.0000 -0.5489955718
O   O8        1.0  0.40350  0.91710  0.84490  1.0000 -0.5489955718
O   O9        1.0  0.94630  0.57130  0.22360  1.0000 -0.5177021975
O   O10       1.0  0.55370  0.07130  0.77640  1.0000 -0.5177021975
O   O11       1.0  0.05370  0.42870  0.77640  1.0000 -0.5177021975
O   O12       1.0  0.44630  0.92870  0.22360  1.0000 -0.5177021975
O   O13       1.0  0.12510  0.53030  0.26840  1.0000 -0.6051783914
O   O14       1.0  0.37490  0.03030  0.73160  1.0000 -0.6051783914
O   O15       1.0  0.87490  0.46970  0.73160  1.0000 -0.6051783914
O   O16       1.0  0.62510  0.96970  0.26840  1.0000 -0.6051783914
O   O17       1.0  0.73870  0.56120  0.60670  1.0000 -0.5489955718
O   O18       1.0  0.76130  0.06120  0.39330  1.0000 -0.5489955718
O   O19       1.0  0.26130  0.43880  0.39330  1.0000 -0.5489955718
O   O20       1.0  0.23870  0.93880  0.60670  1.0000 -0.5489955718
O   O21       1.0  0.78900  0.48060  0.54360  1.0000 -0.5291643644
O   O22       1.0  0.71100  0.98060  0.45640  1.0000 -0.5291643644
O   O23       1.0  0.21100  0.51940  0.45640  1.0000 -0.5291643644
O   O24       1.0  0.28900  0.01940  0.54360  1.0000 -0.5291643644
O   O25       1.0  0.33750  0.45440  0.24370  1.0000 -0.5609261051
O   O26       1.0  0.16250  0.95440  0.75630  1.0000 -0.5609261051
O   O27       1.0  0.66250  0.54560  0.75630  1.0000 -0.5609261051
O   O28       1.0  0.83750  0.04560  0.24370  1.0000 -0.5609261051
O   O29       1.0  0.51770  0.42040  0.27330  1.0000 -0.5023559237
O   O30       1.0  0.98230  0.92040  0.72670  1.0000 -0.5023559237
O   O31       1.0  0.48230  0.57960  0.72670  1.0000 -0.5023559237
O   O32       1.0  0.01770  0.07960  0.27330  1.0000 -0.5023559237
O   O33       1.0  0.04210  0.53290  0.62240  1.0000 -0.5405753906
O   O34       1.0  0.45790  0.03290  0.37760  1.0000 -0.5405753906
O   O35       1.0  0.95790  0.46710  0.37760  1.0000 -0.5405753906
O   O36       1.0  0.54210  0.96710  0.62240  1.0000 -0.5405753906
O   O37       1.0  0.98350  0.59330  0.70910  1.0000 -0.5291643644
O   O38       1.0  0.51650  0.09330  0.29090  1.0000 -0.5291643644
O   O39       1.0  0.01650  0.40670  0.29090  1.0000 -0.5291643644
O   O40       1.0  0.48350  0.90670  0.70910  1.0000 -0.5291643644
O   O41       1.0  0.15190  0.80180  0.77260  1.0000 -0.5405753906
O   O42       1.0  0.34810  0.30180  0.22740  1.0000 -0.5405753906
O   O43       1.0  0.84810  0.19820  0.22740  1.0000 -0.5405753906
O   O44       1.0  0.65190  0.69820  0.77260  1.0000 -0.5405753906
O   O45       1.0  0.27580  0.83680  0.70640  1.0000 -0.5291643644
O   O46       1.0  0.22420  0.33680  0.29360  1.0000 -0.5291643644
O   O47       1.0  0.72420  0.16320  0.29360  1.0000 -0.5291643644
O   O48       1.0  0.77580  0.66320  0.70640  1.0000 -0.5291643644
