# DDEC6 charges by PACMAN v1.1 (https://github.com/mtap-research/PACMAN-charge/)
data_TUTJAU_ASR_pacman
_symmetry_space_group_name_H-M   'P 1'
_cell_length_a   16.36100000
_cell_length_b   15.20900000
_cell_length_c   19.32260000
_cell_angle_alpha   90.00000000
_cell_angle_beta   122.11100000
_cell_angle_gamma   90.00000000
_symmetry_Int_Tables_number   1
_chemical_formula_structural   MnH9C14(NO2)2
_chemical_formula_sum   'Mn8 H72 C112 N16 O32'
_cell_volume   4072.58046759
_cell_formula_units_Z   8
loop_
 _symmetry_equiv_pos_site_id
 _symmetry_equiv_pos_as_xyz
  1  'x, y, z'
loop_
 _atom_site_type_symbol
 _atom_site_label
 _atom_site_symmetry_multiplicity
 _atom_site_fract_x
 _atom_site_fract_y
 _atom_site_fract_z
 _atom_site_occupancy
 _atom_site_charge
Mn  Mn1  1  0.22475000  0.43356000  0.76662000  1.0 0.931282826
Mn  Mn2  1  0.77525000  0.93356000  0.73338000  1.0 0.931282826
Mn  Mn3  1  0.77525000  0.56644000  0.23338000  1.0 0.931282826
Mn  Mn4  1  0.22475000  0.06644000  0.26662000  1.0 0.931282826
Mn  Mn5  1  0.26854000  0.14904000  0.71831000  1.0 0.931282826
Mn  Mn6  1  0.73146000  0.64904000  0.78169000  1.0 0.931282826
Mn  Mn7  1  0.73146000  0.85096000  0.28169000  1.0 0.931282826
Mn  Mn8  1  0.26854000  0.35096000  0.21831000  1.0 0.931282826
H  H1  1  0.64660000  0.18980000  0.68020000  1.0 0.2902352813
H  H2  1  0.35340000  0.68980000  0.81980000  1.0 0.2902352813
H  H3  1  0.35340000  0.81020000  0.31980000  1.0 0.2902352813
H  H4  1  0.64660000  0.31020000  0.18020000  1.0 0.2902352813
H  H5  1  0.82880000  0.40970000  0.76580000  1.0 0.2622642296
H  H6  1  0.17120000  0.90970000  0.73420000  1.0 0.2622642296
H  H7  1  0.17120000  0.59030000  0.23420000  1.0 0.2622642296
H  H8  1  0.82880000  0.09030000  0.26580000  1.0 0.2622642296
H  H9  1  0.00110000  0.11600000  0.72200000  1.0 0.1199807952
H  H10  1  0.99890000  0.61600000  0.77800000  1.0 0.1199807952
H  H11  1  0.99890000  0.88400000  0.27800000  1.0 0.1199807952
H  H12  1  0.00110000  0.38400000  0.22200000  1.0 0.1199807952
H  H13  1  0.47960000  0.46690000  0.75090000  1.0 0.1199807952
H  H14  1  0.52040000  0.96690000  0.74910000  1.0 0.1199807952
H  H15  1  0.52040000  0.53310000  0.24910000  1.0 0.1199807952
H  H16  1  0.47960000  0.03310000  0.25090000  1.0 0.1199807952
H  H17  1  0.67100000  0.34080000  0.71670000  1.0 0.1199807952
H  H18  1  0.32900000  0.84080000  0.78330000  1.0 0.1199807952
H  H19  1  0.32900000  0.65920000  0.28330000  1.0 0.1199807952
H  H20  1  0.67100000  0.15920000  0.21670000  1.0 0.1199807952
H  H21  1  0.43830000  0.21400000  0.68210000  1.0 0.1397347391
H  H22  1  0.56170000  0.71400000  0.81790000  1.0 0.1397347391
H  H23  1  0.56170000  0.78600000  0.31790000  1.0 0.1397347391
H  H24  1  0.43830000  0.28600000  0.18210000  1.0 0.1397347391
H  H25  1  0.99330000  0.48510000  0.81120000  1.0 0.1199807952
H  H26  1  0.00670000  0.98510000  0.68880000  1.0 0.1199807952
H  H27  1  0.00670000  0.51490000  0.18880000  1.0 0.1199807952
H  H28  1  0.99330000  0.01490000  0.31120000  1.0 0.1199807952
H  H29  1  0.92370000  0.51730000  0.83850000  1.0 0.1271174926
H  H30  1  0.07630000  0.01730000  0.66150000  1.0 0.1271174926
H  H31  1  0.07630000  0.48270000  0.16150000  1.0 0.1271174926
H  H32  1  0.92370000  0.98270000  0.33850000  1.0 0.1271174926
H  H33  1  0.04120000  0.37070000  0.77990000  1.0 0.1271174926
H  H34  1  0.95880000  0.87070000  0.72010000  1.0 0.1271174926
H  H35  1  0.95880000  0.62930000  0.22010000  1.0 0.1271174926
H  H36  1  0.04120000  0.12930000  0.27990000  1.0 0.1271174926
H  H37  1  0.81210000  0.24610000  0.75590000  1.0 0.1199807952
H  H38  1  0.18790000  0.74610000  0.74410000  1.0 0.1199807952
H  H39  1  0.18790000  0.75390000  0.24410000  1.0 0.1199807952
H  H40  1  0.81210000  0.25390000  0.25590000  1.0 0.1199807952
H  H41  1  0.38230000  0.18470000  0.39360000  1.0 0.1115312429
H  H42  1  0.61770000  0.68470000  0.10640000  1.0 0.1115312429
H  H43  1  0.61770000  0.81530000  0.60640000  1.0 0.1115312429
H  H44  1  0.38230000  0.31530000  0.89360000  1.0 0.1115312429
H  H45  1  0.41750000  0.98270000  0.57520000  1.0 0.1397347391
H  H46  1  0.58250000  0.48270000  0.92480000  1.0 0.1397347391
H  H47  1  0.58250000  0.01730000  0.42480000  1.0 0.1397347391
H  H48  1  0.41750000  0.51730000  0.07520000  1.0 0.1397347391
H  H49  1  0.14860000  0.48670000  0.93490000  1.0 0.1397347391
H  H50  1  0.85140000  0.98670000  0.56510000  1.0 0.1397347391
H  H51  1  0.85140000  0.51330000  0.06510000  1.0 0.1397347391
H  H52  1  0.14860000  0.01330000  0.43490000  1.0 0.1397347391
H  H53  1  0.31870000  0.95430000  0.44040000  1.0 0.1030811521
H  H54  1  0.68130000  0.45430000  0.05960000  1.0 0.1030811521
H  H55  1  0.68130000  0.04570000  0.55960000  1.0 0.1030811521
H  H56  1  0.31870000  0.54570000  0.94040000  1.0 0.1030811521
H  H57  1  0.49380000  0.20800000  0.53120000  1.0 0.1397347391
H  H58  1  0.50620000  0.70800000  0.96880000  1.0 0.1397347391
H  H59  1  0.50620000  0.79200000  0.46880000  1.0 0.1397347391
H  H60  1  0.49380000  0.29200000  0.03120000  1.0 0.1397347391
H  H61  1  0.93840000  0.36470000  0.94030000  1.0 0.1397347391
H  H62  1  0.06160000  0.86470000  0.55970000  1.0 0.1397347391
H  H63  1  0.06160000  0.63530000  0.05970000  1.0 0.1397347391
H  H64  1  0.93840000  0.13530000  0.44030000  1.0 0.1397347391
H  H65  1  0.25340000  0.43670000  0.06290000  1.0 0.1030811521
H  H66  1  0.74660000  0.93670000  0.43710000  1.0 0.1030811521
H  H67  1  0.74660000  0.56330000  0.93710000  1.0 0.1030811521
H  H68  1  0.25340000  0.06330000  0.56290000  1.0 0.1030811521
H  H69  1  0.04750000  0.32810000  0.07180000  1.0 0.1115312429
H  H70  1  0.95250000  0.82810000  0.42820000  1.0 0.1115312429
H  H71  1  0.95250000  0.67190000  0.92820000  1.0 0.1115312429
H  H72  1  0.04750000  0.17190000  0.57180000  1.0 0.1115312429
C  C1  1  0.58570000  0.41550000  0.73810000  1.0 -0.0089803242
C  C2  1  0.41430000  0.91550000  0.76190000  1.0 -0.0089803242
C  C3  1  0.41430000  0.58450000  0.26190000  1.0 -0.0089803242
C  C4  1  0.58570000  0.08450000  0.23810000  1.0 -0.0089803242
C  C5  1  0.44390000  0.33990000  0.71640000  1.0 -0.0291230732
C  C6  1  0.55610000  0.83990000  0.78360000  1.0 -0.0291230732
C  C7  1  0.55610000  0.66010000  0.28360000  1.0 -0.0291230732
C  C8  1  0.44390000  0.16010000  0.21640000  1.0 -0.0291230732
C  C9  1  0.54300000  0.10320000  0.66050000  1.0 0.0362358366
C  C10  1  0.45700000  0.60320000  0.83950000  1.0 0.0362358366
C  C11  1  0.45700000  0.89680000  0.33950000  1.0 0.0362358366
C  C12  1  0.54300000  0.39680000  0.16050000  1.0 0.0362358366
C  C13  1  0.89810000  0.16850000  0.73600000  1.0 -0.0022297308
C  C14  1  0.10190000  0.66850000  0.76400000  1.0 -0.0022297308
C  C15  1  0.10190000  0.83150000  0.26400000  1.0 -0.0022297308
C  C16  1  0.89810000  0.33150000  0.23600000  1.0 -0.0022297308
C  C17  1  0.98110000  0.16790000  0.73400000  1.0 -0.1401393541
C  C18  1  0.01890000  0.66790000  0.76600000  1.0 -0.1401393541
C  C19  1  0.01890000  0.83210000  0.26600000  1.0 -0.1401393541
C  C20  1  0.98110000  0.33210000  0.23400000  1.0 -0.1401393541
C  C21  1  0.64500000  0.49760000  0.76010000  1.0 0.5399068224
C  C22  1  0.35500000  0.99760000  0.73990000  1.0 0.5399068224
C  C23  1  0.35500000  0.50240000  0.23990000  1.0 0.5399068224
C  C24  1  0.64500000  0.00240000  0.26010000  1.0 0.5399068224
C  C25  1  0.49950000  0.41600000  0.73740000  1.0 -0.1401393541
C  C26  1  0.50050000  0.91600000  0.76260000  1.0 -0.1401393541
C  C27  1  0.50050000  0.58400000  0.26260000  1.0 -0.1401393541
C  C28  1  0.49950000  0.08400000  0.23740000  1.0 -0.1401393541
C  C29  1  0.03430000  0.24240000  0.74960000  1.0 -0.0224761178
C  C30  1  0.96570000  0.74240000  0.75040000  1.0 -0.0224761178
C  C31  1  0.96570000  0.75760000  0.25040000  1.0 -0.0224761178
C  C32  1  0.03430000  0.25760000  0.24960000  1.0 -0.0224761178
C  C33  1  0.61480000  0.33990000  0.71780000  1.0 -0.212706804
C  C34  1  0.38520000  0.83990000  0.78220000  1.0 -0.212706804
C  C35  1  0.38520000  0.66010000  0.28220000  1.0 -0.212706804
C  C36  1  0.61480000  0.16010000  0.21780000  1.0 -0.212706804
C  C37  1  0.47610000  0.26450000  0.69700000  1.0 -0.1916747562
C  C38  1  0.52390000  0.76450000  0.80300000  1.0 -0.1916747562
C  C39  1  0.52390000  0.73550000  0.30300000  1.0 -0.1916747562
C  C40  1  0.47610000  0.23550000  0.19700000  1.0 -0.1916747562
C  C41  1  0.91860000  0.32240000  0.76770000  1.0 0.2143042239
C  C42  1  0.08140000  0.82240000  0.73230000  1.0 0.2143042239
C  C43  1  0.08140000  0.67760000  0.23230000  1.0 0.2143042239
C  C44  1  0.91860000  0.17760000  0.26770000  1.0 0.2143042239
C  C45  1  0.02830000  0.43530000  0.92130000  1.0 0.1397347391
C  C46  1  0.97170000  0.93530000  0.57870000  1.0 0.1397347391
C  C47  1  0.97170000  0.56470000  0.07870000  1.0 0.1397347391
C  C48  1  0.02830000  0.06470000  0.42130000  1.0 0.1397347391
C  C49  1  0.56160000  0.26170000  0.69890000  1.0 0.2319528277
C  C50  1  0.43840000  0.76170000  0.80110000  1.0 0.2319528277
C  C51  1  0.43840000  0.73830000  0.30110000  1.0 0.2319528277
C  C52  1  0.56160000  0.23830000  0.19890000  1.0 0.2319528277
C  C53  1  0.12690000  0.24170000  0.75150000  1.0 0.5900949913
C  C54  1  0.87310000  0.74170000  0.74850000  1.0 0.5900949913
C  C55  1  0.87310000  0.75830000  0.24850000  1.0 0.5900949913
C  C56  1  0.12690000  0.25830000  0.25150000  1.0 0.5900949913
C  C57  1  0.95790000  0.46650000  0.83600000  1.0 -0.1317523566
C  C58  1  0.04210000  0.96650000  0.66400000  1.0 -0.1317523566
C  C59  1  0.04210000  0.53350000  0.16400000  1.0 -0.1317523566
C  C60  1  0.95790000  0.03350000  0.33600000  1.0 -0.1317523566
C  C61  1  0.47010000  0.09410000  0.57000000  1.0 0.0899437874
C  C62  1  0.52990000  0.59410000  0.93000000  1.0 0.0899437874
C  C63  1  0.52990000  0.90590000  0.43000000  1.0 0.0899437874
C  C64  1  0.47010000  0.40590000  0.07000000  1.0 0.0899437874
C  C65  1  0.84380000  0.08460000  0.72460000  1.0 0.5399068224
C  C66  1  0.15620000  0.58460000  0.77540000  1.0 0.5399068224
C  C67  1  0.15620000  0.91540000  0.27540000  1.0 0.5399068224
C  C68  1  0.84380000  0.41540000  0.22460000  1.0 0.5399068224
C  C69  1  0.00410000  0.32010000  0.76770000  1.0 -0.1916747562
C  C70  1  0.99590000  0.82010000  0.73230000  1.0 -0.1916747562
C  C71  1  0.99590000  0.67990000  0.23230000  1.0 -0.1916747562
C  C72  1  0.00410000  0.17990000  0.26770000  1.0 -0.1916747562
C  C73  1  0.35270000  0.33880000  0.71560000  1.0 0.5900949913
C  C74  1  0.64730000  0.83880000  0.78440000  1.0 0.5900949913
C  C75  1  0.64730000  0.66120000  0.28440000  1.0 0.5900949913
C  C76  1  0.35270000  0.16120000  0.21560000  1.0 0.5900949913
C  C77  1  0.86750000  0.24610000  0.75360000  1.0 -0.212706804
C  C78  1  0.13250000  0.74610000  0.74640000  1.0 -0.212706804
C  C79  1  0.13250000  0.75390000  0.24640000  1.0 -0.212706804
C  C80  1  0.86750000  0.25390000  0.25360000  1.0 -0.212706804
C  C81  1  0.39000000  0.14150000  0.43070000  1.0 0.0899437874
C  C82  1  0.61000000  0.64150000  0.06930000  1.0 0.0899437874
C  C83  1  0.61000000  0.85850000  0.56930000  1.0 0.0899437874
C  C84  1  0.39000000  0.35850000  0.93070000  1.0 0.0899437874
C  C85  1  0.41400000  0.02450000  0.53860000  1.0 -0.1997895871
C  C86  1  0.58600000  0.52450000  0.96140000  1.0 -0.1997895871
C  C87  1  0.58600000  0.97550000  0.46140000  1.0 -0.1997895871
C  C88  1  0.41400000  0.47550000  0.03860000  1.0 -0.1997895871
C  C89  1  0.12510000  0.45390000  0.96130000  1.0 -0.2173579072
C  C90  1  0.87490000  0.95390000  0.53870000  1.0 -0.2173579072
C  C91  1  0.87490000  0.54610000  0.03870000  1.0 -0.2173579072
C  C92  1  0.12510000  0.04610000  0.46130000  1.0 -0.2173579072
C  C93  1  0.35100000  0.00780000  0.45710000  1.0 0.0619330968
C  C94  1  0.64900000  0.50780000  0.04290000  1.0 0.0619330968
C  C95  1  0.64900000  0.99220000  0.54290000  1.0 0.0619330968
C  C96  1  0.35100000  0.49220000  0.95710000  1.0 0.0619330968
C  C97  1  0.45780000  0.15640000  0.51420000  1.0 -0.1916747562
C  C98  1  0.54220000  0.65640000  0.98580000  1.0 -0.1916747562
C  C99  1  0.54220000  0.84360000  0.48580000  1.0 -0.1916747562
C  C100  1  0.45780000  0.34360000  0.01420000  1.0 -0.1916747562
C  C101  1  0.00180000  0.38390000  0.96460000  1.0 -0.1997895871
C  C102  1  0.99820000  0.88390000  0.53540000  1.0 -0.1997895871
C  C103  1  0.99820000  0.61610000  0.03540000  1.0 -0.1997895871
C  C104  1  0.00180000  0.11610000  0.46460000  1.0 -0.1997895871
C  C105  1  0.18820000  0.42490000  0.03990000  1.0 0.0821620806
C  C106  1  0.81180000  0.92490000  0.46010000  1.0 0.0821620806
C  C107  1  0.81180000  0.57510000  0.96010000  1.0 0.0821620806
C  C108  1  0.18820000  0.07510000  0.53990000  1.0 0.0821620806
C  C109  1  0.06900000  0.36100000  0.04390000  1.0 0.0501972095
C  C110  1  0.93100000  0.86100000  0.45610000  1.0 0.0501972095
C  C111  1  0.93100000  0.63900000  0.95610000  1.0 0.0501972095
C  C112  1  0.06900000  0.13900000  0.54390000  1.0 0.0501972095
N  N1  1  0.33630000  0.06910000  0.40170000  1.0 -0.2382528835
N  N2  1  0.66370000  0.56910000  0.09830000  1.0 -0.2382528835
N  N3  1  0.66370000  0.93090000  0.59830000  1.0 -0.2382528835
N  N4  1  0.33630000  0.43090000  0.90170000  1.0 -0.2382528835
N  N5  1  0.59410000  0.18680000  0.68020000  1.0 -0.2859436345
N  N6  1  0.40590000  0.68680000  0.81980000  1.0 -0.2859436345
N  N7  1  0.40590000  0.81320000  0.31980000  1.0 -0.2859436345
N  N8  1  0.59410000  0.31320000  0.18020000  1.0 -0.2833170963
N  N9  1  0.88910000  0.40080000  0.78550000  1.0 -0.3107835872
N  N10  1  0.11090000  0.90080000  0.71450000  1.0 -0.3107835872
N  N11  1  0.11090000  0.59920000  0.21450000  1.0 -0.3107835872
N  N12  1  0.88910000  0.09920000  0.28550000  1.0 -0.3107835872
N  N13  1  0.16320000  0.38190000  0.08470000  1.0 -0.2382528835
N  N14  1  0.83680000  0.88190000  0.41530000  1.0 -0.2382528835
N  N15  1  0.83680000  0.61810000  0.91530000  1.0 -0.2382528835
N  N16  1  0.16320000  0.11810000  0.58470000  1.0 -0.2382528835
O  O1  1  0.61750000  0.56520000  0.77850000  1.0 -0.5422803906
O  O2  1  0.38250000  0.06520000  0.72150000  1.0 -0.5422803906
O  O3  1  0.38250000  0.43480000  0.22150000  1.0 -0.5422803906
O  O4  1  0.61750000  0.93480000  0.27850000  1.0 -0.5422803906
O  O5  1  0.72130000  0.49760000  0.75870000  1.0 -0.5698620123
O  O6  1  0.27870000  0.99760000  0.74130000  1.0 -0.5698620123
O  O7  1  0.27870000  0.50240000  0.24130000  1.0 -0.5698620123
O  O8  1  0.72130000  0.00240000  0.25870000  1.0 -0.5698620123
O  O9  1  0.17980000  0.30910000  0.77810000  1.0 -0.5698620123
O  O10  1  0.82020000  0.80910000  0.72190000  1.0 -0.5698620123
O  O11  1  0.82020000  0.69090000  0.22190000  1.0 -0.5698620123
O  O12  1  0.17980000  0.19090000  0.27810000  1.0 -0.5698620123
O  O13  1  0.87430000  0.01510000  0.71350000  1.0 -0.5422803906
O  O14  1  0.12570000  0.51510000  0.78650000  1.0 -0.5422803906
O  O15  1  0.12570000  0.98490000  0.28650000  1.0 -0.5422803906
O  O16  1  0.87430000  0.48490000  0.21350000  1.0 -0.5422803906
O  O17  1  0.77140000  0.08580000  0.73300000  1.0 -0.5698620123
O  O18  1  0.22860000  0.58580000  0.76700000  1.0 -0.5698620123
O  O19  1  0.22860000  0.91420000  0.26700000  1.0 -0.5698620123
O  O20  1  0.77140000  0.41420000  0.23300000  1.0 -0.5698620123
O  O21  1  0.14710000  0.17260000  0.72810000  1.0 -0.5548513603
O  O22  1  0.85290000  0.67260000  0.77190000  1.0 -0.5548513603
O  O23  1  0.85290000  0.82740000  0.27190000  1.0 -0.5548513603
O  O24  1  0.14710000  0.32740000  0.22810000  1.0 -0.5548513603
O  O25  1  0.30080000  0.27190000  0.69010000  1.0 -0.5698620123
O  O26  1  0.69920000  0.77190000  0.80990000  1.0 -0.5698620123
O  O27  1  0.69920000  0.72810000  0.30990000  1.0 -0.5698620123
O  O28  1  0.30080000  0.22810000  0.19010000  1.0 -0.5698620123
O  O29  1  0.33200000  0.40800000  0.74020000  1.0 -0.5698620123
O  O30  1  0.66800000  0.90800000  0.75980000  1.0 -0.5698620123
O  O31  1  0.66800000  0.59200000  0.25980000  1.0 -0.5698620123
O  O32  1  0.33200000  0.09200000  0.24020000  1.0 -0.5698620123
