# DDEC6 charges by PACMAN v1.1 (https://github.com/mtap-research/PACMAN-charge/)
data_2010[Nd][nan]3[ASR]3
_chemical_formula_sum              "Nd4 H32 C36 O24"
_cell_length_a       12.7809
_cell_length_b       12.7809
_cell_length_c       19.4746
_cell_angle_alpha    90
_cell_angle_beta     90
_cell_angle_gamma    140.083

_symmetry_space_group_name_H-M    "P 1"
_symmetry_Int_Tables_number       1

loop_
  _symmetry_equiv_pos_as_xyz
  'x, y, z'

loop_
  _atom_site_type_symbol
  _atom_site_label
  _atom_site_symmetry_multiplicity
  _atom_site_fract_x
  _atom_site_fract_y
  _atom_site_fract_z
  _atom_site_occupancy
  _atom_site_charge
Nd  Nd1       1.0  0.25807  0.74193  0.50000  1.0000 2.0799866762
Nd  Nd2       1.0  0.74193  0.25807  0.00000  1.0000 2.0799866762
Nd  Nd3       1.0  0.74193  0.25807  0.50000  1.0000 2.0799866762
Nd  Nd4       1.0  0.25807  0.74193  0.00000  1.0000 2.0799866762
H   H1        1.0  0.66420  0.76100  0.45840  1.0000 0.1236094383
H   H2        1.0  0.33580  0.23900  0.95840  1.0000 0.1236094383
H   H3        1.0  0.76100  0.66420  0.04160  1.0000 0.1236094383
H   H4        1.0  0.23900  0.33580  0.54160  1.0000 0.1236094383
H   H5        1.0  0.33580  0.23900  0.54160  1.0000 0.1236094383
H   H6        1.0  0.66420  0.76100  0.04160  1.0000 0.1236094383
H   H7        1.0  0.23900  0.33580  0.95840  1.0000 0.1236094383
H   H8        1.0  0.76100  0.66420  0.45840  1.0000 0.1236094383
H   H9        1.0  0.00320  0.33720  0.31320  1.0000 0.1293341068
H   H10       1.0  0.99680  0.66280  0.81320  1.0000 0.1293341068
H   H11       1.0  0.33720  0.00320  0.18680  1.0000 0.1293341068
H   H12       1.0  0.66280  0.99680  0.68680  1.0000 0.1293341068
H   H13       1.0  0.99680  0.66280  0.68680  1.0000 0.1293341068
H   H14       1.0  0.00320  0.33720  0.18680  1.0000 0.1293341068
H   H15       1.0  0.66280  0.99680  0.81320  1.0000 0.1293341068
H   H16       1.0  0.33720  0.00320  0.31320  1.0000 0.1293341068
H   H17       1.0  0.88020  0.33980  0.31600  1.0000 0.1293341068
H   H18       1.0  0.11980  0.66020  0.81600  1.0000 0.1236094383
H   H19       1.0  0.33980  0.88020  0.18400  1.0000 0.1293341068
H   H20       1.0  0.66020  0.11980  0.68400  1.0000 0.1293341068
H   H21       1.0  0.11980  0.66020  0.68400  1.0000 0.1236094383
H   H22       1.0  0.88020  0.33980  0.18400  1.0000 0.1293341068
H   H23       1.0  0.66020  0.11980  0.81600  1.0000 0.1293341068
H   H24       1.0  0.33980  0.88020  0.31600  1.0000 0.1293341068
H   H25       1.0  0.19140  0.58720  0.25000  1.0000 0.0898471146
H   H26       1.0  0.80860  0.41280  0.75000  1.0000 0.0898471146
H   H27       1.0  0.58720  0.19140  0.25000  1.0000 0.0898471146
H   H28       1.0  0.41280  0.80860  0.75000  1.0000 0.0898471146
H   H29       1.0  0.06070  0.57970  0.25000  1.0000 0.0898471146
H   H30       1.0  0.93930  0.42030  0.75000  1.0000 0.0898471146
H   H31       1.0  0.57970  0.06070  0.25000  1.0000 0.0898471146
H   H32       1.0  0.42030  0.93930  0.75000  1.0000 0.0898471146
C   C1        1.0  0.37958  0.62042  0.50000  1.0000 0.5575464067
C   C2        1.0  0.62042  0.37958  0.00000  1.0000 0.5575464067
C   C3        1.0  0.62042  0.37958  0.50000  1.0000 0.5575464067
C   C4        1.0  0.37958  0.62042  0.00000  1.0000 0.5575464067
C   C5        1.0  0.44175  0.55825  0.50000  1.0000 -0.009155561
C   C6        1.0  0.55825  0.44175  0.00000  1.0000 -0.009155561
C   C7        1.0  0.55825  0.44175  0.50000  1.0000 -0.009155561
C   C8        1.0  0.44175  0.55825  0.00000  1.0000 -0.009155561
C   C9        1.0  0.59711  0.65469  0.47534  1.0000 -0.0985838327
C   C10       1.0  0.40289  0.34531  0.97534  1.0000 -0.0985838327
C   C11       1.0  0.65469  0.59711  0.02466  1.0000 -0.0985838327
C   C12       1.0  0.34531  0.40289  0.52466  1.0000 -0.0985838327
C   C13       1.0  0.40289  0.34531  0.52466  1.0000 -0.0985838327
C   C14       1.0  0.59711  0.65469  0.02466  1.0000 -0.0985838327
C   C15       1.0  0.34531  0.40289  0.97534  1.0000 -0.0985838327
C   C16       1.0  0.65469  0.59711  0.47534  1.0000 -0.0985838327
C   C17       1.0  0.07648  0.50772  0.38026  1.0000 0.6782076803
C   C18       1.0  0.92352  0.49228  0.88026  1.0000 0.6782076803
C   C19       1.0  0.50772  0.07648  0.11974  1.0000 0.6782076803
C   C20       1.0  0.49228  0.92352  0.61974  1.0000 0.6782076803
C   C21       1.0  0.92352  0.49228  0.61974  1.0000 0.6782076803
C   C22       1.0  0.07648  0.50772  0.11974  1.0000 0.6782076803
C   C23       1.0  0.49228  0.92352  0.88026  1.0000 0.6782076803
C   C24       1.0  0.50772  0.07648  0.38026  1.0000 0.6782076803
C   C25       1.0  0.99706  0.40974  0.31492  1.0000 -0.3346645686
C   C26       1.0  0.00294  0.59026  0.81492  1.0000 -0.3350513133
C   C27       1.0  0.40974  0.99706  0.18508  1.0000 -0.3350513133
C   C28       1.0  0.59026  0.00294  0.68508  1.0000 -0.3346645686
C   C29       1.0  0.00294  0.59026  0.68508  1.0000 -0.3350513133
C   C30       1.0  0.99706  0.40974  0.18508  1.0000 -0.3346645686
C   C31       1.0  0.59026  0.00294  0.81492  1.0000 -0.3346645686
C   C32       1.0  0.40974  0.99706  0.31492  1.0000 -0.3350513133
C   C33       1.0  0.07324  0.51236  0.25000  1.0000 -0.0929503873
C   C34       1.0  0.92676  0.48764  0.75000  1.0000 -0.0929503873
C   C35       1.0  0.51236  0.07324  0.25000  1.0000 -0.0929503873
C   C36       1.0  0.48764  0.92676  0.75000  1.0000 -0.0929503873
O   O1        1.0  0.47189  0.76491  0.48046  1.0000 -0.6213447433
O   O2        1.0  0.52811  0.23509  0.98046  1.0000 -0.6213447433
O   O3        1.0  0.76491  0.47189  0.01954  1.0000 -0.6213447433
O   O4        1.0  0.23509  0.52811  0.51954  1.0000 -0.6213447433
O   O5        1.0  0.52811  0.23509  0.51954  1.0000 -0.6213447433
O   O6        1.0  0.47189  0.76491  0.01954  1.0000 -0.6213447433
O   O7        1.0  0.23509  0.52811  0.98046  1.0000 -0.6213447433
O   O8        1.0  0.76491  0.47189  0.48046  1.0000 -0.6213447433
O   O9        1.0  0.22686  0.64414  0.38114  1.0000 -0.6213447433
O   O10       1.0  0.77314  0.35586  0.88114  1.0000 -0.6213447433
O   O11       1.0  0.64414  0.22686  0.11886  1.0000 -0.6213447433
O   O12       1.0  0.35586  0.77314  0.61886  1.0000 -0.6250676069
O   O13       1.0  0.77314  0.35586  0.61886  1.0000 -0.6213447433
O   O14       1.0  0.22686  0.64414  0.11886  1.0000 -0.6213447433
O   O15       1.0  0.35586  0.77314  0.88114  1.0000 -0.6250676069
O   O16       1.0  0.64414  0.22686  0.38114  1.0000 -0.6213447433
O   O17       1.0  0.99254  0.45346  0.43457  1.0000 -0.7395528707
O   O18       1.0  0.00746  0.54654  0.93457  1.0000 -0.7395528707
O   O19       1.0  0.45346  0.99254  0.06543  1.0000 -0.7395528707
O   O20       1.0  0.54654  0.00746  0.56543  1.0000 -0.7395528707
O   O21       1.0  0.00746  0.54654  0.56543  1.0000 -0.7395528707
O   O22       1.0  0.99254  0.45346  0.06543  1.0000 -0.7395528707
O   O23       1.0  0.54654  0.00746  0.93457  1.0000 -0.7395528707
O   O24       1.0  0.45346  0.99254  0.43457  1.0000 -0.7395528707
