# DDEC6 charges by PACMAN v1.1 (https://github.com/mtap-research/PACMAN-charge/)
data_2011[Zn][dia]3[ASR]6
_chemical_formula_sum              "Zn2 H8 C4 N20"
_cell_length_a       10.1564
_cell_length_b       10.1564
_cell_length_c       8.7796
_cell_angle_alpha    64.389
_cell_angle_beta     115.611
_cell_angle_gamma    82.0274

_symmetry_space_group_name_H-M    "P 1"
_symmetry_Int_Tables_number       1

loop_
  _symmetry_equiv_pos_as_xyz
  'x, y, z'

loop_
  _atom_site_type_symbol
  _atom_site_label
  _atom_site_symmetry_multiplicity
  _atom_site_fract_x
  _atom_site_fract_y
  _atom_site_fract_z
  _atom_site_occupancy
  _atom_site_charge
Zn  Zn1       1.0  0.16314  0.11228  0.86733  1.0000 0.6578577007
Zn  Zn2       1.0  0.88772  0.83686  0.36733  1.0000 0.6578577007
H   H1        1.0  0.85260  0.39340  0.45560  1.0000 0.2808741923
H   H2        1.0  0.60660  0.14740  0.95560  1.0000 0.2808741923
H   H3        1.0  0.76870  0.57210  0.30320  1.0000 0.3096266534
H   H4        1.0  0.42790  0.23130  0.80320  1.0000 0.3096266534
H   H5        1.0  0.18390  0.69410  0.30850  1.0000 0.2808741923
H   H6        1.0  0.30590  0.81610  0.80850  1.0000 0.2808741923
H   H7        1.0  0.27560  0.78060  0.26310  1.0000 0.2808741923
H   H8        1.0  0.21940  0.72440  0.76310  1.0000 0.2808741923
C   C1        1.0  0.98090  0.47510  0.55450  1.0000 0.4638327505
C   C2        1.0  0.52490  0.01910  0.05450  1.0000 0.4638327505
C   C3        1.0  0.07930  0.92450  0.17150  1.0000 0.471020862
C   C4        1.0  0.07550  0.92070  0.67150  1.0000 0.471020862
N   N1        1.0  0.10980  0.34300  0.72100  1.0000 -0.3303086278
N   N2        1.0  0.65700  0.89020  0.22100  1.0000 -0.3303086278
N   N3        1.0  0.21720  0.39560  0.80790  1.0000 -0.0760804587
N   N4        1.0  0.60440  0.78280  0.30790  1.0000 -0.0760804587
N   N5        1.0  0.84950  0.47790  0.41960  1.0000 -0.535315976
N   N6        1.0  0.52210  0.15050  0.91960  1.0000 -0.535315976
N   N7        1.0  0.00750  0.60310  0.54000  1.0000 -0.3303086278
N   N8        1.0  0.39690  0.99250  0.04000  1.0000 -0.3303086278
N   N9        1.0  0.15900  0.54660  0.70280  1.0000 -0.0924732727
N   N10       1.0  0.45340  0.84100  0.20280  1.0000 -0.0924732727
N   N11       1.0  0.93080  0.17560  0.96000  1.0000 -0.0707474653
N   N12       1.0  0.82440  0.06920  0.46000  1.0000 -0.0707474653
N   N13       1.0  0.86240  0.11200  0.04520  1.0000 -0.0760804587
N   N14       1.0  0.88800  0.13760  0.54520  1.0000 -0.0760804587
N   N15       1.0  0.07130  0.05990  0.03550  1.0000 -0.3303086278
N   N16       1.0  0.94010  0.92870  0.53550  1.0000 -0.3303086278
N   N17       1.0  0.95280  0.95220  0.18120  1.0000 -0.3303086278
N   N18       1.0  0.04780  0.04720  0.68120  1.0000 -0.3303086278
N   N19       1.0  0.19980  0.78240  0.28020  1.0000 -0.573028401
N   N20       1.0  0.21760  0.80020  0.78020  1.0000 -0.573028401
