# DDEC6 charges by PACMAN v1.1 (https://github.com/mtap-research/PACMAN-charge/)
data_UZUNAF01_ASR_pacman
_symmetry_space_group_name_H-M   'P 1'
_cell_length_a   15.30180000
_cell_length_b   15.30180000
_cell_length_c   8.64100000
_cell_angle_alpha   85.03530000
_cell_angle_beta   94.96470000
_cell_angle_gamma   129.09200000
_symmetry_Int_Tables_number   1
_chemical_formula_structural   CuH11C11(NO2)2
_chemical_formula_sum   'Cu4 H44 C44 N8 O16'
_cell_volume   1563.08284034
_cell_formula_units_Z   4
loop_
 _symmetry_equiv_pos_site_id
 _symmetry_equiv_pos_as_xyz
  1  'x, y, z'
loop_
 _atom_site_type_symbol
 _atom_site_label
 _atom_site_symmetry_multiplicity
 _atom_site_fract_x
 _atom_site_fract_y
 _atom_site_fract_z
 _atom_site_occupancy
 _atom_site_charge
Cu  Cu1  1  0.50609000  0.08513000  0.03810000  1.0 0.745291805
Cu  Cu2  1  0.08513000  0.50609000  0.46190000  1.0 0.745291805
Cu  Cu3  1  0.49391000  0.91487000  0.96190000  1.0 0.745291805
Cu  Cu4  1  0.91487000  0.49391000  0.53810000  1.0 0.745291805
H  H1  1  0.36290000  0.13590000  0.17630000  1.0 0.1105585555
H  H2  1  0.13590000  0.36290000  0.32370000  1.0 0.1105585555
H  H3  1  0.63710000  0.86410000  0.82370000  1.0 0.1105585555
H  H4  1  0.86410000  0.63710000  0.67630000  1.0 0.1105585555
H  H5  1  0.37920000  0.26420000  0.31770000  1.0 0.1314337471
H  H6  1  0.26420000  0.37920000  0.18230000  1.0 0.1314337471
H  H7  1  0.62080000  0.73580000  0.68230000  1.0 0.1314337471
H  H8  1  0.73580000  0.62080000  0.81770000  1.0 0.1314337471
H  H9  1  0.71030000  0.46510000  0.27370000  1.0 0.1406515297
H  H10  1  0.46510000  0.71030000  0.22630000  1.0 0.1406515297
H  H11  1  0.28970000  0.53490000  0.72630000  1.0 0.1406515297
H  H12  1  0.53490000  0.28970000  0.77370000  1.0 0.1406515297
H  H13  1  0.68560000  0.33180000  0.13070000  1.0 0.1156772842
H  H14  1  0.33180000  0.68560000  0.36930000  1.0 0.1156772842
H  H15  1  0.31440000  0.66820000  0.86930000  1.0 0.1156772842
H  H16  1  0.66820000  0.31440000  0.63070000  1.0 0.1156772842
H  H17  1  0.63500000  0.53820000  0.40390000  1.0 0.1105585555
H  H18  1  0.53820000  0.63500000  0.09610000  1.0 0.1105585555
H  H19  1  0.36500000  0.46180000  0.59610000  1.0 0.1105585555
H  H20  1  0.46180000  0.36500000  0.90390000  1.0 0.1105585555
H  H21  1  0.45850000  0.07530000  0.49370000  1.0 0.1406515297
H  H22  1  0.07530000  0.45850000  0.00630000  1.0 0.1406515297
H  H23  1  0.54150000  0.92470000  0.50630000  1.0 0.1406515297
H  H24  1  0.92470000  0.54150000  0.99370000  1.0 0.1406515297
H  H25  1  0.35930000  0.05950000  0.56820000  1.0 0.1314337471
H  H26  1  0.05950000  0.35930000  0.93180000  1.0 0.1314337471
H  H27  1  0.64070000  0.94050000  0.43180000  1.0 0.1314337471
H  H28  1  0.94050000  0.64070000  0.06820000  1.0 0.1314337471
H  H29  1  0.28590000  0.91430000  0.39470000  1.0 0.092493346
H  H30  1  0.91430000  0.28590000  0.10530000  1.0 0.092493346
H  H31  1  0.71410000  0.08570000  0.60530000  1.0 0.092493346
H  H32  1  0.08570000  0.71410000  0.89470000  1.0 0.092493346
H  H33  1  0.35110000  0.87770000  0.48890000  1.0 0.1007130426
H  H34  1  0.87770000  0.35110000  0.01110000  1.0 0.1007130426
H  H35  1  0.64890000  0.12230000  0.51110000  1.0 0.1007130426
H  H36  1  0.12230000  0.64890000  0.98890000  1.0 0.1007130426
H  H37  1  0.24090000  0.83350000  0.70700000  1.0 0.1406515297
H  H38  1  0.83350000  0.24090000  0.79300000  1.0 0.1406515297
H  H39  1  0.75910000  0.16650000  0.29300000  1.0 0.1406515297
H  H40  1  0.16650000  0.75910000  0.20700000  1.0 0.1406515297
H  H41  1  0.16950000  0.85610000  0.59800000  1.0 0.1314337471
H  H42  1  0.85610000  0.16950000  0.90200000  1.0 0.1314337471
H  H43  1  0.83050000  0.14390000  0.40200000  1.0 0.1314337471
H  H44  1  0.14390000  0.83050000  0.09800000  1.0 0.1314337471
C  C1  1  0.43430000  0.20330000  0.19620000  1.0 0.0798468274
C  C2  1  0.20330000  0.43430000  0.30380000  1.0 0.0798468274
C  C3  1  0.56570000  0.79670000  0.80380000  1.0 0.0798468274
C  C4  1  0.79670000  0.56570000  0.69620000  1.0 0.0798468274
C  C5  1  0.44340000  0.28000000  0.28050000  1.0 -0.1692110914
C  C6  1  0.28000000  0.44340000  0.21950000  1.0 -0.1692110914
C  C7  1  0.55660000  0.72000000  0.71950000  1.0 -0.1692110914
C  C8  1  0.72000000  0.55660000  0.78050000  1.0 -0.1692110914
C  C9  1  0.54727000  0.38053000  0.31050000  1.0 0.1007130426
C  C10  1  0.38053000  0.54727000  0.18950000  1.0 0.1007130426
C  C11  1  0.45273000  0.61947000  0.68950000  1.0 0.1007130426
C  C12  1  0.61947000  0.45273000  0.81050000  1.0 0.1007130426
C  C13  1  0.63808000  0.39832000  0.25450000  1.0 -0.1836676094
C  C14  1  0.39832000  0.63808000  0.24550000  1.0 -0.1836676094
C  C15  1  0.36192000  0.60168000  0.74550000  1.0 -0.1836676094
C  C16  1  0.60168000  0.36192000  0.75450000  1.0 -0.1836676094
C  C17  1  0.62280000  0.31760000  0.16980000  1.0 0.0798468274
C  C18  1  0.31760000  0.62280000  0.33020000  1.0 0.0798468274
C  C19  1  0.37720000  0.68240000  0.83020000  1.0 0.0798468274
C  C20  1  0.68240000  0.37720000  0.66980000  1.0 0.0798468274
C  C21  1  0.56370000  0.46830000  0.39670000  1.0 0.0416338221
C  C22  1  0.46830000  0.56370000  0.10330000  1.0 0.0416338221
C  C23  1  0.43630000  0.53170000  0.60330000  1.0 0.0416338221
C  C24  1  0.53170000  0.43630000  0.89670000  1.0 0.0416338221
C  C25  1  0.44390000  0.02510000  0.72450000  1.0 0.6164081079
C  C26  1  0.02510000  0.44390000  0.77550000  1.0 0.6164081079
C  C27  1  0.55610000  0.97490000  0.27550000  1.0 0.6164081079
C  C28  1  0.97490000  0.55610000  0.22450000  1.0 0.6164081079
C  C29  1  0.39690000  0.02730000  0.56350000  1.0 -0.3283068854
C  C30  1  0.02730000  0.39690000  0.93650000  1.0 -0.3283068854
C  C31  1  0.60310000  0.97270000  0.43650000  1.0 -0.3283068854
C  C32  1  0.97270000  0.60310000  0.06350000  1.0 -0.3283068854
C  C33  1  0.31280000  0.90860000  0.49790000  1.0 -0.0946748871
C  C34  1  0.90860000  0.31280000  0.00210000  1.0 -0.0946748871
C  C35  1  0.68720000  0.09140000  0.50210000  1.0 -0.0946748871
C  C36  1  0.09140000  0.68720000  0.99790000  1.0 -0.0946748871
C  C37  1  0.21270000  0.82950000  0.60080000  1.0 -0.3283068854
C  C38  1  0.82950000  0.21270000  0.89920000  1.0 -0.3283068854
C  C39  1  0.78730000  0.17050000  0.39920000  1.0 -0.3283068854
C  C40  1  0.17050000  0.78730000  0.10080000  1.0 -0.3283068854
C  C41  1  0.29290000  0.86590000  0.05720000  1.0 0.6164081079
C  C42  1  0.86590000  0.29290000  0.44280000  1.0 0.6164081079
C  C43  1  0.70710000  0.13410000  0.94280000  1.0 0.6164081079
C  C44  1  0.13410000  0.70710000  0.55720000  1.0 0.6164081079
N  N1  1  0.52182000  0.21978000  0.14110000  1.0 -0.237420963
N  N2  1  0.21978000  0.52182000  0.35890000  1.0 -0.237420963
N  N3  1  0.47818000  0.78022000  0.85890000  1.0 -0.237420963
N  N4  1  0.78022000  0.47818000  0.64110000  1.0 -0.237420963
N  N5  1  0.48180000  0.45100000  0.46240000  1.0 -0.196575636
N  N6  1  0.45100000  0.48180000  0.03760000  1.0 -0.196575636
N  N7  1  0.51820000  0.54900000  0.53760000  1.0 -0.196575636
N  N8  1  0.54900000  0.51820000  0.96240000  1.0 -0.196575636
O  O1  1  0.46269000  0.09451000  0.81880000  1.0 -0.5379708055
O  O2  1  0.09451000  0.46269000  0.68120000  1.0 -0.5379708055
O  O3  1  0.53731000  0.90549000  0.18120000  1.0 -0.5379708055
O  O4  1  0.90549000  0.53731000  0.31880000  1.0 -0.5379708055
O  O5  1  0.34430000  0.96890000  0.07410000  1.0 -0.5307544711
O  O6  1  0.96890000  0.34430000  0.42590000  1.0 -0.5307544711
O  O7  1  0.65570000  0.03110000  0.92590000  1.0 -0.5307544711
O  O8  1  0.03110000  0.65570000  0.57410000  1.0 -0.5307544711
O  O9  1  0.45781000  0.95359000  0.75600000  1.0 -0.5097579602
O  O10  1  0.95359000  0.45781000  0.74400000  1.0 -0.5097579602
O  O11  1  0.54219000  0.04641000  0.24400000  1.0 -0.5097579602
O  O12  1  0.04641000  0.54219000  0.25600000  1.0 -0.5097579602
O  O13  1  0.33417000  0.82483000  0.01310000  1.0 -0.5097579602
O  O14  1  0.82483000  0.33417000  0.48690000  1.0 -0.5097579602
O  O15  1  0.66583000  0.17517000  0.98690000  1.0 -0.5097579602
O  O16  1  0.17517000  0.66583000  0.51310000  1.0 -0.5097579602
