# DDEC6 charges by PACMAN v1.1 (https://github.com/mtap-research/PACMAN-charge/)
data_VUHJAK_ASR_pacman
_symmetry_space_group_name_H-M   'P 1'
_cell_length_a   14.65600000
_cell_length_b   14.65600000
_cell_length_c   16.90500000
_cell_angle_alpha   90.00000000
_cell_angle_beta   90.00000000
_cell_angle_gamma   120.00000000
_symmetry_Int_Tables_number   1
_chemical_formula_structural   Cu3P2H8C14O11
_chemical_formula_sum   'Cu18 P12 H48 C84 O66'
_cell_volume   3144.68188884
_cell_formula_units_Z   6
loop_
 _symmetry_equiv_pos_site_id
 _symmetry_equiv_pos_as_xyz
  1  'x, y, z'
loop_
 _atom_site_type_symbol
 _atom_site_label
 _atom_site_symmetry_multiplicity
 _atom_site_fract_x
 _atom_site_fract_y
 _atom_site_fract_z
 _atom_site_occupancy
 _atom_site_charge
Cu  Cu1  1  0.88326000  0.32270000  0.14169000  1.0 0.9889158361
Cu  Cu2  1  0.56056000  0.88326000  0.97502000  1.0 0.9889158361
Cu  Cu3  1  0.67730000  0.11674000  0.02498000  1.0 0.9889158361
Cu  Cu4  1  0.67730000  0.56056000  0.80836000  1.0 0.9889158361
Cu  Cu5  1  0.56056000  0.67730000  0.85831000  1.0 0.9889158361
Cu  Cu6  1  0.11674000  0.67730000  0.64169000  1.0 0.9889158361
Cu  Cu7  1  0.88326000  0.56056000  0.69164000  1.0 0.9889158361
Cu  Cu8  1  0.43944000  0.11674000  0.47502000  1.0 0.9889158361
Cu  Cu9  1  0.32270000  0.88326000  0.52498000  1.0 0.9889158361
Cu  Cu10  1  0.32270000  0.43944000  0.30836000  1.0 0.9889158361
Cu  Cu11  1  0.43944000  0.32270000  0.35831000  1.0 0.9889158361
Cu  Cu12  1  0.11674000  0.43944000  0.19164000  1.0 0.9889158361
Cu  Cu13  1  0.00000000  0.16385000  0.16667000  1.0 1.2397087467
Cu  Cu14  1  0.83615000  0.00000000  0.00000000  1.0 1.2397087467
Cu  Cu15  1  0.83615000  0.83615000  0.83333000  1.0 1.2397087467
Cu  Cu16  1  0.00000000  0.83615000  0.66666667  1.0 1.2397087467
Cu  Cu17  1  0.16385000  0.00000000  0.50000000  1.0 1.2397087467
Cu  Cu18  1  0.16385000  0.16385000  0.33333333  1.0 1.2397087467
P  P1  1  0.91938000  0.23500000  0.99423000  1.0 1.2731923314
P  P2  1  0.68438000  0.91938000  0.82756000  1.0 1.2731923314
P  P3  1  0.76500000  0.08062000  0.17244000  1.0 1.2731923314
P  P4  1  0.76500000  0.68438000  0.66090000  1.0 1.2731923314
P  P5  1  0.68438000  0.76500000  0.00577000  1.0 1.2731923314
P  P6  1  0.08062000  0.76500000  0.49423000  1.0 1.2731923314
P  P7  1  0.91938000  0.68438000  0.83910000  1.0 1.2731923314
P  P8  1  0.31562000  0.08062000  0.32756000  1.0 1.2731923314
P  P9  1  0.23500000  0.91938000  0.67244000  1.0 1.2731923314
P  P10  1  0.23500000  0.31562000  0.16090000  1.0 1.2731923314
P  P11  1  0.31562000  0.23500000  0.50577000  1.0 1.2731923314
P  P12  1  0.08062000  0.31562000  0.33910000  1.0 1.2731923314
H  H1  1  0.93550000  0.37780000  0.86840000  1.0 0.1490237526
H  H2  1  0.55770000  0.93550000  0.70173000  1.0 0.1490237526
H  H3  1  0.62220000  0.06450000  0.29827000  1.0 0.1490237526
H  H4  1  0.62220000  0.55770000  0.53507000  1.0 0.1490237526
H  H5  1  0.55770000  0.62220000  0.13160000  1.0 0.1490237526
H  H6  1  0.06450000  0.62220000  0.36840000  1.0 0.1490237526
H  H7  1  0.93550000  0.55770000  0.96493000  1.0 0.1490237526
H  H8  1  0.44230000  0.06450000  0.20173000  1.0 0.1490237526
H  H9  1  0.37780000  0.93550000  0.79827000  1.0 0.1490237526
H  H10  1  0.37780000  0.44230000  0.03507000  1.0 0.1490237526
H  H11  1  0.44230000  0.37780000  0.63160000  1.0 0.1490237526
H  H12  1  0.06450000  0.44230000  0.46493000  1.0 0.1490237526
H  H13  1  0.22600000  0.54200000  0.82100000  1.0 0.1490237526
H  H14  1  0.68400000  0.22600000  0.65433000  1.0 0.1490237526
H  H15  1  0.45800000  0.77400000  0.34567000  1.0 0.1490237526
H  H16  1  0.45800000  0.68400000  0.48767000  1.0 0.1490237526
H  H17  1  0.68400000  0.45800000  0.17900000  1.0 0.1490237526
H  H18  1  0.77400000  0.45800000  0.32100000  1.0 0.1490237526
H  H19  1  0.22600000  0.68400000  0.01233000  1.0 0.1490237526
H  H20  1  0.31600000  0.77400000  0.15433000  1.0 0.1490237526
H  H21  1  0.54200000  0.22600000  0.84567000  1.0 0.1490237526
H  H22  1  0.54200000  0.31600000  0.98767000  1.0 0.1490237526
H  H23  1  0.31600000  0.54200000  0.67900000  1.0 0.1490237526
H  H24  1  0.77400000  0.31600000  0.51233000  1.0 0.1490237526
H  H25  1  0.26400000  0.47700000  0.92300000  1.0 0.1490237526
H  H26  1  0.78700000  0.26400000  0.75633000  1.0 0.1490237526
H  H27  1  0.52300000  0.73600000  0.24367000  1.0 0.1490237526
H  H28  1  0.52300000  0.78700000  0.58967000  1.0 0.1490237526
H  H29  1  0.78700000  0.52300000  0.07700000  1.0 0.1490237526
H  H30  1  0.73600000  0.52300000  0.42300000  1.0 0.1490237526
H  H31  1  0.26400000  0.78700000  0.91033000  1.0 0.1490237526
H  H32  1  0.21300000  0.73600000  0.25633000  1.0 0.1490237526
H  H33  1  0.47700000  0.26400000  0.74367000  1.0 0.1490237526
H  H34  1  0.47700000  0.21300000  0.08967000  1.0 0.1490237526
H  H35  1  0.21300000  0.47700000  0.57700000  1.0 0.1490237526
H  H36  1  0.73600000  0.21300000  0.41033000  1.0 0.1490237526
H  H37  1  0.14100000  0.35200000  0.98900000  1.0 0.1490237526
H  H38  1  0.78900000  0.14100000  0.82233000  1.0 0.1490237526
H  H39  1  0.64800000  0.85900000  0.17767000  1.0 0.1490237526
H  H40  1  0.64800000  0.78900000  0.65567000  1.0 0.1490237526
H  H41  1  0.78900000  0.64800000  0.01100000  1.0 0.1490237526
H  H42  1  0.85900000  0.64800000  0.48900000  1.0 0.1490237526
H  H43  1  0.14100000  0.78900000  0.84433000  1.0 0.1490237526
H  H44  1  0.21100000  0.85900000  0.32233000  1.0 0.1490237526
H  H45  1  0.35200000  0.14100000  0.67767000  1.0 0.1490237526
H  H46  1  0.35200000  0.21100000  0.15567000  1.0 0.1490237526
H  H47  1  0.21100000  0.35200000  0.51100000  1.0 0.1490237526
H  H48  1  0.85900000  0.21100000  0.34433000  1.0 0.1490237526
C  C1  1  0.02060000  0.34280000  0.93540000  1.0 -0.146691753
C  C2  1  0.67780000  0.02060000  0.76873000  1.0 -0.146691753
C  C3  1  0.65720000  0.97940000  0.23127000  1.0 -0.146691753
C  C4  1  0.65720000  0.67780000  0.60207000  1.0 -0.146691753
C  C5  1  0.67780000  0.65720000  0.06460000  1.0 -0.146691753
C  C6  1  0.97940000  0.65720000  0.43540000  1.0 -0.146691753
C  C7  1  0.02060000  0.67780000  0.89793000  1.0 -0.146691753
C  C8  1  0.32220000  0.97940000  0.26873000  1.0 -0.146691753
C  C9  1  0.34280000  0.02060000  0.73127000  1.0 -0.146691753
C  C10  1  0.34280000  0.32220000  0.10207000  1.0 -0.146691753
C  C11  1  0.32220000  0.34280000  0.56460000  1.0 -0.146691753
C  C12  1  0.97940000  0.32220000  0.39793000  1.0 -0.146691753
C  C13  1  0.99540000  0.39250000  0.87510000  1.0 -0.0991744707
C  C14  1  0.60290000  0.99540000  0.70843000  1.0 -0.0991744707
C  C15  1  0.60750000  0.00460000  0.29157000  1.0 -0.0991744707
C  C16  1  0.60750000  0.60290000  0.54177000  1.0 -0.0991744707
C  C17  1  0.60290000  0.60750000  0.12490000  1.0 -0.0991744707
C  C18  1  0.00460000  0.60750000  0.37510000  1.0 -0.0991744707
C  C19  1  0.99540000  0.60290000  0.95823000  1.0 -0.0991744707
C  C20  1  0.39710000  0.00460000  0.20843000  1.0 -0.0991744707
C  C21  1  0.39250000  0.99540000  0.79157000  1.0 -0.0991744707
C  C22  1  0.39250000  0.39710000  0.04177000  1.0 -0.0991744707
C  C23  1  0.39710000  0.39250000  0.62490000  1.0 -0.0991744707
C  C24  1  0.00460000  0.39710000  0.45823000  1.0 -0.0991744707
C  C25  1  0.07490000  0.47000000  0.82910000  1.0 -0.0078255409
C  C26  1  0.60490000  0.07490000  0.66243000  1.0 -0.0078255409
C  C27  1  0.53000000  0.92510000  0.33757000  1.0 -0.0078255409
C  C28  1  0.53000000  0.60490000  0.49577000  1.0 -0.0078255409
C  C29  1  0.60490000  0.53000000  0.17090000  1.0 -0.0078255409
C  C30  1  0.92510000  0.53000000  0.32910000  1.0 -0.0078255409
C  C31  1  0.07490000  0.60490000  0.00423000  1.0 -0.0078255409
C  C32  1  0.39510000  0.92510000  0.16243000  1.0 -0.0078255409
C  C33  1  0.47000000  0.07490000  0.83757000  1.0 -0.0078255409
C  C34  1  0.47000000  0.39510000  0.99577000  1.0 -0.0078255409
C  C35  1  0.39510000  0.47000000  0.67090000  1.0 -0.0078255409
C  C36  1  0.92510000  0.39510000  0.50423000  1.0 -0.0078255409
C  C37  1  0.18090000  0.49780000  0.84270000  1.0 -0.0991744707
C  C38  1  0.68310000  0.18090000  0.67603000  1.0 -0.0991744707
C  C39  1  0.50220000  0.81910000  0.32397000  1.0 -0.0991744707
C  C40  1  0.50220000  0.68310000  0.50937000  1.0 -0.0991744707
C  C41  1  0.68310000  0.50220000  0.15730000  1.0 -0.0991744707
C  C42  1  0.81910000  0.50220000  0.34270000  1.0 -0.0991744707
C  C43  1  0.18090000  0.68310000  0.99063000  1.0 -0.0991744707
C  C44  1  0.31690000  0.81910000  0.17603000  1.0 -0.0991744707
C  C45  1  0.49780000  0.18090000  0.82397000  1.0 -0.0991744707
C  C46  1  0.49780000  0.31690000  0.00937000  1.0 -0.0991744707
C  C47  1  0.31690000  0.49780000  0.65730000  1.0 -0.0991744707
C  C48  1  0.81910000  0.31690000  0.49063000  1.0 -0.0991744707
C  C49  1  0.20520000  0.45060000  0.90270000  1.0 -0.0783718872
C  C50  1  0.75460000  0.20520000  0.73603000  1.0 -0.0783718872
C  C51  1  0.54940000  0.79480000  0.26397000  1.0 -0.0783718872
C  C52  1  0.54940000  0.75460000  0.56937000  1.0 -0.0783718872
C  C53  1  0.75460000  0.54940000  0.09730000  1.0 -0.0783718872
C  C54  1  0.79480000  0.54940000  0.40270000  1.0 -0.0783718872
C  C55  1  0.20520000  0.75460000  0.93063000  1.0 -0.0783718872
C  C56  1  0.24540000  0.79480000  0.23603000  1.0 -0.0783718872
C  C57  1  0.45060000  0.20520000  0.76397000  1.0 -0.0783718872
C  C58  1  0.45060000  0.24540000  0.06937000  1.0 -0.0783718872
C  C59  1  0.24540000  0.45060000  0.59730000  1.0 -0.0783718872
C  C60  1  0.79480000  0.24540000  0.43063000  1.0 -0.0783718872
C  C61  1  0.12570000  0.37290000  0.94980000  1.0 -0.0626607882
C  C62  1  0.75280000  0.12570000  0.78313000  1.0 -0.0626607882
C  C63  1  0.62710000  0.87430000  0.21687000  1.0 -0.0626607882
C  C64  1  0.62710000  0.75280000  0.61647000  1.0 -0.0626607882
C  C65  1  0.75280000  0.62710000  0.05020000  1.0 -0.0626607882
C  C66  1  0.87430000  0.62710000  0.44980000  1.0 -0.0626607882
C  C67  1  0.12570000  0.75280000  0.88353000  1.0 -0.0626607882
C  C68  1  0.24720000  0.87430000  0.28313000  1.0 -0.0626607882
C  C69  1  0.37290000  0.12570000  0.71687000  1.0 -0.0626607882
C  C70  1  0.37290000  0.24720000  0.11647000  1.0 -0.0626607882
C  C71  1  0.24720000  0.37290000  0.55020000  1.0 -0.0626607882
C  C72  1  0.87430000  0.24720000  0.38353000  1.0 -0.0626607882
C  C73  1  0.05000000  0.52760000  0.76610000  1.0 0.5945332301
C  C74  1  0.52240000  0.05000000  0.59943000  1.0 0.5951248604
C  C75  1  0.47240000  0.95000000  0.40057000  1.0 0.5951248604
C  C76  1  0.47240000  0.52240000  0.43277000  1.0 0.5951248604
C  C77  1  0.52240000  0.47240000  0.23390000  1.0 0.5951248604
C  C78  1  0.95000000  0.47240000  0.26610000  1.0 0.5951248604
C  C79  1  0.05000000  0.52240000  0.06723000  1.0 0.5951248604
C  C80  1  0.47760000  0.95000000  0.09943000  1.0 0.5951248604
C  C81  1  0.52760000  0.05000000  0.90057000  1.0 0.5951248604
C  C82  1  0.52760000  0.47760000  0.93277000  1.0 0.5951248604
C  C83  1  0.47760000  0.52760000  0.73390000  1.0 0.5951248604
C  C84  1  0.95000000  0.47760000  0.56723000  1.0 0.5951248604
O  O1  1  0.95350000  0.25530000  0.08250000  1.0 -0.8102223373
O  O2  1  0.69820000  0.95350000  0.91583000  1.0 -0.8102223373
O  O3  1  0.74470000  0.04650000  0.08417000  1.0 -0.8102223373
O  O4  1  0.74470000  0.69820000  0.74917000  1.0 -0.8102223373
O  O5  1  0.69820000  0.74470000  0.91750000  1.0 -0.8102223373
O  O6  1  0.04650000  0.74470000  0.58250000  1.0 -0.8102223373
O  O7  1  0.95350000  0.69820000  0.75083000  1.0 -0.8102223373
O  O8  1  0.30180000  0.04650000  0.41583000  1.0 -0.8102223373
O  O9  1  0.25530000  0.95350000  0.58417000  1.0 -0.8102223373
O  O10  1  0.25530000  0.30180000  0.24917000  1.0 -0.8102223373
O  O11  1  0.30180000  0.25530000  0.41750000  1.0 -0.8102223373
O  O12  1  0.04650000  0.30180000  0.25083000  1.0 -0.8102223373
O  O13  1  0.81180000  0.22640000  0.98100000  1.0 -0.7502225883
O  O14  1  0.58540000  0.81180000  0.81433000  1.0 -0.7502225883
O  O15  1  0.77360000  0.18820000  0.18567000  1.0 -0.7502225883
O  O16  1  0.77360000  0.58540000  0.64767000  1.0 -0.7502225883
O  O17  1  0.58540000  0.77360000  0.01900000  1.0 -0.7502225883
O  O18  1  0.18820000  0.77360000  0.48100000  1.0 -0.7502225883
O  O19  1  0.81180000  0.58540000  0.85233000  1.0 -0.7502225883
O  O20  1  0.41460000  0.18820000  0.31433000  1.0 -0.7502225883
O  O21  1  0.22640000  0.81180000  0.68567000  1.0 -0.7502225883
O  O22  1  0.22640000  0.41460000  0.14767000  1.0 -0.7502225883
O  O23  1  0.41460000  0.22640000  0.51900000  1.0 -0.7502225883
O  O24  1  0.18820000  0.41460000  0.35233000  1.0 -0.7502225883
O  O25  1  0.92110000  0.13810000  0.96350000  1.0 -0.6303482848
O  O26  1  0.78300000  0.92110000  0.79683000  1.0 -0.6303482848
O  O27  1  0.86190000  0.07890000  0.20317000  1.0 -0.6303482848
O  O28  1  0.86190000  0.78300000  0.63017000  1.0 -0.6303482848
O  O29  1  0.78300000  0.86190000  0.03650000  1.0 -0.6303482848
O  O30  1  0.07890000  0.86190000  0.46350000  1.0 -0.6303482848
O  O31  1  0.92110000  0.78300000  0.86983000  1.0 -0.6303482848
O  O32  1  0.21700000  0.07890000  0.29683000  1.0 -0.6303482848
O  O33  1  0.13810000  0.92110000  0.70317000  1.0 -0.6303482848
O  O34  1  0.13810000  0.21700000  0.13017000  1.0 -0.6303482848
O  O35  1  0.21700000  0.13810000  0.53650000  1.0 -0.6303482848
O  O36  1  0.07890000  0.21700000  0.36983000  1.0 -0.6303482848
O  O37  1  0.95330000  0.50110000  0.75580000  1.0 -0.5614206689
O  O38  1  0.45220000  0.95330000  0.58913000  1.0 -0.5614206689
O  O39  1  0.49890000  0.04670000  0.41087000  1.0 -0.5614206689
O  O40  1  0.49890000  0.45220000  0.42247000  1.0 -0.5614206689
O  O41  1  0.45220000  0.49890000  0.24420000  1.0 -0.5614206689
O  O42  1  0.04670000  0.49890000  0.25580000  1.0 -0.5614206689
O  O43  1  0.95330000  0.45220000  0.07753000  1.0 -0.5614206689
O  O44  1  0.54780000  0.04670000  0.08913000  1.0 -0.5614206689
O  O45  1  0.50110000  0.95330000  0.91087000  1.0 -0.5614206689
O  O46  1  0.50110000  0.54780000  0.92247000  1.0 -0.5614206689
O  O47  1  0.54780000  0.50110000  0.74420000  1.0 -0.5614206689
O  O48  1  0.04670000  0.54780000  0.57753000  1.0 -0.5614206689
O  O49  1  0.12800000  0.60090000  0.73010000  1.0 -0.526555965
O  O50  1  0.52710000  0.12800000  0.56343000  1.0 -0.526555965
O  O51  1  0.39910000  0.87200000  0.43657000  1.0 -0.526555965
O  O52  1  0.39910000  0.52710000  0.39677000  1.0 -0.526555965
O  O53  1  0.52710000  0.39910000  0.26990000  1.0 -0.526555965
O  O54  1  0.87200000  0.39910000  0.23010000  1.0 -0.526555965
O  O55  1  0.12800000  0.52710000  0.10323000  1.0 -0.526555965
O  O56  1  0.47290000  0.87200000  0.06343000  1.0 -0.526555965
O  O57  1  0.60090000  0.12800000  0.93657000  1.0 -0.526555965
O  O58  1  0.60090000  0.47290000  0.89677000  1.0 -0.526555965
O  O59  1  0.47290000  0.60090000  0.76990000  1.0 -0.526555965
O  O60  1  0.87200000  0.47290000  0.60323000  1.0 -0.526555965
O  O61  1  0.96620000  0.03380000  0.08333000  1.0 -0.6009287087
O  O62  1  0.93240000  0.96620000  0.91667000  1.0 -0.6009287087
O  O63  1  0.96620000  0.93240000  0.75000000  1.0 -0.6009287087
O  O64  1  0.03380000  0.96620000  0.58333000  1.0 -0.6009287087
O  O65  1  0.06760000  0.03380000  0.41667000  1.0 -0.6009287087
O  O66  1  0.03380000  0.06760000  0.25000000  1.0 -0.6009287087
