# DDEC6 charges by PACMAN v1.1 (https://github.com/mtap-research/PACMAN-charge/)
data_VURYOX_ASR_pacman
_symmetry_space_group_name_H-M   'P 1'
_cell_length_a   4.70830000
_cell_length_b   31.01100000
_cell_length_c   10.98000000
_cell_angle_alpha   90.00000000
_cell_angle_beta   96.14500000
_cell_angle_gamma   90.00000000
_symmetry_Int_Tables_number   1
_chemical_formula_structural   CuH6C11(NO)4
_chemical_formula_sum   'Cu4 H24 C44 N16 O16'
_cell_volume   1593.96823635
_cell_formula_units_Z   4
loop_
 _symmetry_equiv_pos_site_id
 _symmetry_equiv_pos_as_xyz
  1  'x, y, z'
loop_
 _atom_site_type_symbol
 _atom_site_label
 _atom_site_symmetry_multiplicity
 _atom_site_fract_x
 _atom_site_fract_y
 _atom_site_fract_z
 _atom_site_occupancy
 _atom_site_charge
Cu  Cu1  1  0.51873000  0.80617000  0.39726000  1.0 0.7265250335
Cu  Cu2  1  0.48127000  0.30617000  0.10274000  1.0 0.7265250335
Cu  Cu3  1  0.48127000  0.19383000  0.60274000  1.0 0.7265250335
Cu  Cu4  1  0.51873000  0.69383000  0.89726000  1.0 0.7265250335
H  H1  1  0.63000000  0.70800000  0.46100000  1.0 0.1307135696
H  H2  1  0.37000000  0.20800000  0.03900000  1.0 0.1307135696
H  H3  1  0.37000000  0.29200000  0.53900000  1.0 0.1307135696
H  H4  1  0.63000000  0.79200000  0.96100000  1.0 0.1307135696
H  H5  1  0.45000000  0.64600000  0.36400000  1.0 0.1105426965
H  H6  1  0.55000000  0.14600000  0.13600000  1.0 0.1105426965
H  H7  1  0.55000000  0.35400000  0.63600000  1.0 0.1105426965
H  H8  1  0.45000000  0.85400000  0.86400000  1.0 0.1105426965
H  H9  1  0.77000000  0.86940000  0.29700000  1.0 0.1307135696
H  H10  1  0.23000000  0.36940000  0.20300000  1.0 0.1307135696
H  H11  1  0.23000000  0.13060000  0.70300000  1.0 0.1307135696
H  H12  1  0.77000000  0.63060000  0.79700000  1.0 0.1307135696
H  H13  1  0.45580000  0.87800000  0.61070000  1.0 0.1105426965
H  H14  1  0.54420000  0.37800000  0.88930000  1.0 0.1105426965
H  H15  1  0.54420000  0.12200000  0.38930000  1.0 0.1105426965
H  H16  1  0.45580000  0.62200000  0.11070000  1.0 0.1105426965
H  H17  1  0.65620000  0.94660000  0.63660000  1.0 0.1449368695
H  H18  1  0.34380000  0.44660000  0.86340000  1.0 0.1449368695
H  H19  1  0.34380000  0.05340000  0.36340000  1.0 0.1449368695
H  H20  1  0.65620000  0.55340000  0.13660000  1.0 0.1449368695
H  H21  1  0.95860000  0.93760000  0.32070000  1.0 0.1475587362
H  H22  1  0.04140000  0.43760000  0.17930000  1.0 0.1475587362
H  H23  1  0.04140000  0.06240000  0.67930000  1.0 0.1475587362
H  H24  1  0.95860000  0.56240000  0.82070000  1.0 0.1475587362
C  C1  1  0.21650000  0.79470000  0.17700000  1.0 0.5372271637
C  C2  1  0.78350000  0.29470000  0.32300000  1.0 0.5372271637
C  C3  1  0.78350000  0.20530000  0.82300000  1.0 0.5372271637
C  C4  1  0.21650000  0.70530000  0.67700000  1.0 0.5372271637
C  C5  1  0.26740000  0.74930000  0.22940000  1.0 0.0506495026
C  C6  1  0.73260000  0.24930000  0.27060000  1.0 0.0506495026
C  C7  1  0.73260000  0.25070000  0.77060000  1.0 0.0506495026
C  C8  1  0.26740000  0.75070000  0.72940000  1.0 0.0506495026
C  C9  1  0.50950000  0.70980000  0.38670000  1.0 0.0767420293
C  C10  1  0.49050000  0.20980000  0.11330000  1.0 0.0767420293
C  C11  1  0.49050000  0.29020000  0.61330000  1.0 0.0767420293
C  C12  1  0.50950000  0.79020000  0.88670000  1.0 0.0767420293
C  C13  1  0.39750000  0.67330000  0.32860000  1.0 0.0506495026
C  C14  1  0.60250000  0.17330000  0.17140000  1.0 0.0506495026
C  C15  1  0.60250000  0.32670000  0.67140000  1.0 0.0506495026
C  C16  1  0.39750000  0.82670000  0.82860000  1.0 0.0506495026
C  C17  1  0.15520000  0.71210000  0.17530000  1.0 0.0744851964
C  C18  1  0.84480000  0.21210000  0.32470000  1.0 0.0744851964
C  C19  1  0.84480000  0.28790000  0.82470000  1.0 0.0744851964
C  C20  1  0.15520000  0.78790000  0.67530000  1.0 0.0744851964
C  C21  1  0.96830000  0.70840000  0.05720000  1.0 0.4941887656
C  C22  1  0.03170000  0.20840000  0.44280000  1.0 0.4941887656
C  C23  1  0.03170000  0.29160000  0.94280000  1.0 0.4941887656
C  C24  1  0.96830000  0.79160000  0.55720000  1.0 0.4941887656
C  C25  1  0.74634000  0.88553000  0.36942000  1.0 0.0506495026
C  C26  1  0.25366000  0.38553000  0.13058000  1.0 0.0506495026
C  C27  1  0.25366000  0.11447000  0.63058000  1.0 0.0506495026
C  C28  1  0.74634000  0.61447000  0.86942000  1.0 0.0506495026
C  C29  1  0.56497000  0.88955000  0.55038000  1.0 0.1225407967
C  C30  1  0.43503000  0.38955000  0.94962000  1.0 0.1225407967
C  C31  1  0.43503000  0.11045000  0.44962000  1.0 0.1225407967
C  C32  1  0.56497000  0.61045000  0.05038000  1.0 0.1225407967
C  C33  1  0.67621000  0.93070000  0.56402000  1.0 -0.2479349947
C  C34  1  0.32379000  0.43070000  0.93598000  1.0 -0.2479349947
C  C35  1  0.32379000  0.06930000  0.43598000  1.0 -0.2479349947
C  C36  1  0.67621000  0.56930000  0.06402000  1.0 -0.2479349947
C  C37  1  0.85281000  0.92582000  0.38183000  1.0 -0.168136408
C  C38  1  0.14719000  0.42582000  0.11817000  1.0 -0.168136408
C  C39  1  0.14719000  0.07418000  0.61817000  1.0 -0.168136408
C  C40  1  0.85281000  0.57418000  0.88183000  1.0 -0.168136408
C  C41  1  0.81099000  0.94812000  0.47591000  1.0 0.1722702297
C  C42  1  0.18901000  0.44812000  0.02409000  1.0 0.1722702297
C  C43  1  0.18901000  0.05188000  0.52409000  1.0 0.1722702297
C  C44  1  0.81099000  0.55188000  0.97591000  1.0 0.1722702297
N  N1  1  0.43950000  0.74810000  0.33400000  1.0 -0.2124912565
N  N2  1  0.56050000  0.24810000  0.16600000  1.0 -0.2124912565
N  N3  1  0.56050000  0.25190000  0.66600000  1.0 -0.2124912565
N  N4  1  0.43950000  0.75190000  0.83400000  1.0 -0.2124912565
N  N5  1  0.22330000  0.67430000  0.22640000  1.0 -0.2347909411
N  N6  1  0.77670000  0.17430000  0.27360000  1.0 -0.2347909411
N  N7  1  0.77670000  0.32570000  0.77360000  1.0 -0.2347909411
N  N8  1  0.22330000  0.82570000  0.72640000  1.0 -0.2347909411
N  N9  1  0.60688000  0.86788000  0.46060000  1.0 -0.2124912565
N  N10  1  0.39312000  0.36788000  0.03940000  1.0 -0.2124912565
N  N11  1  0.39312000  0.13212000  0.53940000  1.0 -0.2124912565
N  N12  1  0.60688000  0.63212000  0.96060000  1.0 -0.2124912565
N  N13  1  0.87775000  0.99583000  0.47905000  1.0 -0.1045695146
N  N14  1  0.12225000  0.49583000  0.02095000  1.0 -0.1045695146
N  N15  1  0.12225000  0.00417000  0.52095000  1.0 -0.1045695146
N  N16  1  0.87775000  0.50417000  0.97905000  1.0 -0.1045695146
O  O1  1  0.31340000  0.82424000  0.24805000  1.0 -0.4914340576
O  O2  1  0.68660000  0.32424000  0.25195000  1.0 -0.4914340576
O  O3  1  0.68660000  0.17576000  0.75195000  1.0 -0.4914340576
O  O4  1  0.31340000  0.67576000  0.74805000  1.0 -0.4914340576
O  O5  1  0.04382000  0.79999000  0.06731000  1.0 -0.6136893531
O  O6  1  0.95618000  0.29999000  0.43269000  1.0 -0.6136893531
O  O7  1  0.95618000  0.20001000  0.93269000  1.0 -0.6136893531
O  O8  1  0.04382000  0.70001000  0.56731000  1.0 -0.6136893531
O  O9  1  0.68242000  0.70859000  0.01007000  1.0 -0.4090133062
O  O10  1  0.31758000  0.20859000  0.48993000  1.0 -0.4090133062
O  O11  1  0.31758000  0.29141000  0.98993000  1.0 -0.4090133062
O  O12  1  0.68242000  0.79141000  0.51007000  1.0 -0.4090133062
O  O13  1  0.12691000  0.70316000  0.97811000  1.0 -0.4363847723
O  O14  1  0.87309000  0.20316000  0.52189000  1.0 -0.4363847723
O  O15  1  0.87309000  0.29684000  0.02189000  1.0 -0.4363847723
O  O16  1  0.12691000  0.79684000  0.47811000  1.0 -0.4363847723
