# DDEC6 charges by PACMAN v1.1 (https://github.com/mtap-research/PACMAN-charge/)
data_VUSKAW_ASR_pacman
_symmetry_space_group_name_H-M   'P 1'
_cell_length_a   18.25190000
_cell_length_b   18.25190000
_cell_length_c   18.25200000
_cell_angle_alpha   60.00370000
_cell_angle_beta   119.99600000
_cell_angle_gamma   120.00000000
_symmetry_Int_Tables_number   1
_chemical_formula_structural   Zn4H12C24Br12O13
_chemical_formula_sum   'Zn8 H24 C48 Br24 O26'
_cell_volume   4299.68751562
_cell_formula_units_Z   2
loop_
 _symmetry_equiv_pos_site_id
 _symmetry_equiv_pos_as_xyz
  1  'x, y, z'
loop_
 _atom_site_type_symbol
 _atom_site_label
 _atom_site_symmetry_multiplicity
 _atom_site_fract_x
 _atom_site_fract_y
 _atom_site_fract_z
 _atom_site_occupancy
 _atom_site_charge
Zn  Zn1  1  0.70633000  0.29367000  0.61920000  1.0 0.9680211403
Zn  Zn2  1  0.29367000  0.70633000  0.38080000  1.0 0.9680211403
Zn  Zn3  1  0.70645000  0.29355000  0.79390000  1.0 0.9805129625
Zn  Zn4  1  0.29355000  0.70645000  0.20610000  1.0 0.9805129625
Zn  Zn5  1  0.70652000  0.11912000  0.79369000  1.0 0.9608370223
Zn  Zn6  1  0.11912000  0.70652000  0.20631000  1.0 0.9608370223
Zn  Zn7  1  0.29348000  0.88088000  0.20631000  1.0 0.9608370223
Zn  Zn8  1  0.88088000  0.29348000  0.79369000  1.0 0.9608370223
H  H1  1  0.54510000  0.45490000  0.65300000  1.0 0.150841944
H  H2  1  0.45490000  0.54510000  0.34700000  1.0 0.150841944
H  H3  1  0.54240000  0.45760000  0.43450000  1.0 0.1367854782
H  H4  1  0.45760000  0.54240000  0.56550000  1.0 0.1367854782
H  H5  1  0.06380000  0.45620000  0.65230000  1.0 0.150841944
H  H6  1  0.45620000  0.06380000  0.34770000  1.0 0.150841944
H  H7  1  0.93620000  0.54380000  0.34770000  1.0 0.150841944
H  H8  1  0.54380000  0.93620000  0.65230000  1.0 0.150841944
H  H9  1  0.84770000  0.45930000  0.43840000  1.0 0.150841944
H  H10  1  0.45930000  0.84770000  0.56160000  1.0 0.150841944
H  H11  1  0.15230000  0.54070000  0.56160000  1.0 0.150841944
H  H12  1  0.54070000  0.15230000  0.43840000  1.0 0.150841944
H  H13  1  0.06180000  0.45260000  0.95480000  1.0 0.150841944
H  H14  1  0.45260000  0.06180000  0.04520000  1.0 0.150841944
H  H15  1  0.93820000  0.54740000  0.04520000  1.0 0.150841944
H  H16  1  0.54740000  0.93820000  0.95480000  1.0 0.150841944
H  H17  1  0.84650000  0.45310000  0.96010000  1.0 0.150841944
H  H18  1  0.45310000  0.84650000  0.03990000  1.0 0.150841944
H  H19  1  0.15350000  0.54690000  0.03990000  1.0 0.150841944
H  H20  1  0.54690000  0.15350000  0.96010000  1.0 0.150841944
H  H21  1  0.84710000  0.93710000  0.95300000  1.0 0.1552646913
H  H22  1  0.93710000  0.84710000  0.04700000  1.0 0.1552646913
H  H23  1  0.15290000  0.06290000  0.04700000  1.0 0.150841944
H  H24  1  0.06290000  0.15290000  0.95300000  1.0 0.150841944
C  C1  1  0.61010000  0.38990000  0.60700000  1.0 0.5604115313
C  C2  1  0.38990000  0.61010000  0.39300000  1.0 0.5604115313
C  C3  1  0.55400000  0.44600000  0.55400000  1.0 -0.049090813
C  C4  1  0.44600000  0.55400000  0.44600000  1.0 -0.049090813
C  C5  1  0.52740000  0.47260000  0.59100000  1.0 -0.0614057369
C  C6  1  0.47260000  0.52740000  0.40900000  1.0 -0.0614057369
C  C7  1  0.52500000  0.47500000  0.46200000  1.0 -0.0663758233
C  C8  1  0.47500000  0.52500000  0.53800000  1.0 -0.0663758233
C  C9  1  0.89060000  0.38820000  0.61360000  1.0 0.5604115313
C  C10  1  0.38820000  0.89060000  0.38640000  1.0 0.5604115313
C  C11  1  0.10940000  0.61180000  0.38640000  1.0 0.5604115313
C  C12  1  0.61180000  0.10940000  0.61360000  1.0 0.5604115313
C  C13  1  0.94760000  0.44700000  0.55320000  1.0 -0.0856530137
C  C14  1  0.44700000  0.94760000  0.44680000  1.0 -0.079802397
C  C15  1  0.05240000  0.55300000  0.44680000  1.0 -0.0856530137
C  C16  1  0.55300000  0.05240000  0.55320000  1.0 -0.0856530137
C  C17  1  0.03730000  0.47310000  0.59000000  1.0 -0.079802397
C  C18  1  0.47310000  0.03730000  0.41000000  1.0 -0.079802397
C  C19  1  0.96270000  0.52690000  0.41000000  1.0 -0.079802397
C  C20  1  0.52690000  0.96270000  0.59000000  1.0 -0.079802397
C  C21  1  0.90990000  0.47490000  0.46400000  1.0 -0.079802397
C  C22  1  0.47490000  0.90990000  0.53600000  1.0 -0.079802397
C  C23  1  0.09010000  0.52510000  0.53600000  1.0 -0.079802397
C  C24  1  0.52510000  0.09010000  0.46400000  1.0 -0.079802397
C  C25  1  0.88940000  0.38780000  0.89020000  1.0 0.5604115313
C  C26  1  0.38780000  0.88940000  0.10980000  1.0 0.5604115313
C  C27  1  0.11060000  0.61220000  0.10980000  1.0 0.5604115313
C  C28  1  0.61220000  0.11060000  0.89020000  1.0 0.5604115313
C  C29  1  0.94510000  0.44370000  0.94710000  1.0 -0.0963719274
C  C30  1  0.44370000  0.94510000  0.05290000  1.0 -0.0963719274
C  C31  1  0.05490000  0.55630000  0.05290000  1.0 -0.0963719274
C  C32  1  0.55630000  0.05490000  0.94710000  1.0 -0.0963719274
C  C33  1  0.03610000  0.47150000  0.97230000  1.0 -0.0614057369
C  C34  1  0.47150000  0.03610000  0.02770000  1.0 -0.0614057369
C  C35  1  0.96390000  0.52850000  0.02770000  1.0 -0.0614057369
C  C36  1  0.52850000  0.96390000  0.97230000  1.0 -0.0614057369
C  C37  1  0.90850000  0.47190000  0.97570000  1.0 -0.0614057369
C  C38  1  0.47190000  0.90850000  0.02430000  1.0 -0.0614057369
C  C39  1  0.09150000  0.52810000  0.02430000  1.0 -0.0614057369
C  C40  1  0.52810000  0.09150000  0.97570000  1.0 -0.0614057369
C  C41  1  0.88650000  0.11350000  0.88500000  1.0 0.5656447866
C  C42  1  0.11350000  0.88650000  0.11500000  1.0 0.5604115313
C  C43  1  0.94670000  0.05330000  0.94700000  1.0 -0.079802397
C  C44  1  0.05330000  0.94670000  0.05300000  1.0 -0.079802397
C  C45  1  0.90920000  0.96340000  0.97250000  1.0 -0.079802397
C  C46  1  0.96340000  0.90920000  0.02750000  1.0 -0.079802397
C  C47  1  0.09080000  0.03660000  0.02750000  1.0 -0.079802397
C  C48  1  0.03660000  0.09080000  0.97250000  1.0 -0.079802397
Br  Br1  1  0.55300000  0.44700000  0.72400000  1.0 -0.1554305098
Br  Br2  1  0.44700000  0.55300000  0.27600000  1.0 -0.1554305098
Br  Br3  1  0.55500000  0.44500000  0.38700000  1.0 -0.1464161418
Br  Br4  1  0.44500000  0.55500000  0.61300000  1.0 -0.1464161418
Br  Br5  1  0.54740000  0.90820000  0.71260000  1.0 -0.0663758233
Br  Br6  1  0.90820000  0.54740000  0.28740000  1.0 -0.0663758233
Br  Br7  1  0.45260000  0.09180000  0.28740000  1.0 -0.0663758233
Br  Br8  1  0.09180000  0.45260000  0.71260000  1.0 -0.0663758233
Br  Br9  1  0.55720000  0.21580000  0.41620000  1.0 -0.0663758233
Br  Br10  1  0.21580000  0.55720000  0.58380000  1.0 -0.0663758233
Br  Br11  1  0.44280000  0.78420000  0.58380000  1.0 -0.0663758233
Br  Br12  1  0.78420000  0.44280000  0.41620000  1.0 -0.0614057369
Br  Br13  1  0.58830000  0.91450000  0.96150000  1.0 -0.0663758233
Br  Br14  1  0.91450000  0.58830000  0.03850000  1.0 -0.0663758233
Br  Br15  1  0.41170000  0.08550000  0.03850000  1.0 -0.0663758233
Br  Br16  1  0.08550000  0.41170000  0.96150000  1.0 -0.0663758233
Br  Br17  1  0.57570000  0.21290000  0.95500000  1.0 -0.0614057369
Br  Br18  1  0.21290000  0.57570000  0.04500000  1.0 -0.0614057369
Br  Br19  1  0.42430000  0.78710000  0.04500000  1.0 -0.0614057369
Br  Br20  1  0.78710000  0.42430000  0.95500000  1.0 -0.0614057369
Br  Br21  1  0.78220000  0.91320000  0.93200000  1.0 -0.079802397
Br  Br22  1  0.91320000  0.78220000  0.06800000  1.0 -0.079802397
Br  Br23  1  0.21780000  0.08680000  0.06800000  1.0 -0.079802397
Br  Br24  1  0.08680000  0.21780000  0.93200000  1.0 -0.079802397
O  O1  1  0.74990000  0.25010000  0.74980000  1.0 -1.0474906109
O  O2  1  0.25010000  0.74990000  0.25020000  1.0 -1.0474906109
O  O3  1  0.63330000  0.36670000  0.57110000  1.0 -0.4720019303
O  O4  1  0.36670000  0.63330000  0.42890000  1.0 -0.4720019303
O  O5  1  0.63170000  0.36830000  0.69160000  1.0 -0.4879587851
O  O6  1  0.36830000  0.63170000  0.30840000  1.0 -0.4846556924
O  O7  1  0.80490000  0.36810000  0.57010000  1.0 -0.4720019303
O  O8  1  0.36810000  0.80490000  0.42990000  1.0 -0.4720019303
O  O9  1  0.19510000  0.63190000  0.42990000  1.0 -0.4720019303
O  O10  1  0.63190000  0.19510000  0.57010000  1.0 -0.4720019303
O  O11  1  0.93110000  0.36570000  0.69630000  1.0 -0.4609422527
O  O12  1  0.36570000  0.93110000  0.30370000  1.0 -0.4609422527
O  O13  1  0.06890000  0.63430000  0.30370000  1.0 -0.4609422527
O  O14  1  0.63430000  0.06890000  0.69630000  1.0 -0.4609422527
O  O15  1  0.80380000  0.36840000  0.86490000  1.0 -0.4879587851
O  O16  1  0.36840000  0.80380000  0.13510000  1.0 -0.4879587851
O  O17  1  0.19620000  0.63160000  0.13510000  1.0 -0.4879587851
O  O18  1  0.63160000  0.19620000  0.86490000  1.0 -0.4879587851
O  O19  1  0.92960000  0.36620000  0.86770000  1.0 -0.4720019303
O  O20  1  0.36620000  0.92960000  0.13230000  1.0 -0.4720019303
O  O21  1  0.07040000  0.63380000  0.13230000  1.0 -0.4720019303
O  O22  1  0.63380000  0.07040000  0.86770000  1.0 -0.4720019303
O  O23  1  0.80350000  0.07110000  0.86540000  1.0 -0.4609422527
O  O24  1  0.07110000  0.80350000  0.13460000  1.0 -0.4609422527
O  O25  1  0.19650000  0.92890000  0.13460000  1.0 -0.4609422527
O  O26  1  0.92890000  0.19650000  0.86540000  1.0 -0.4609422527
