# DDEC6 charges by PACMAN v1.1 (https://github.com/mtap-research/PACMAN-charge/)
data_2007[Zn][nan]3[ASR]13
_chemical_formula_sum              "Zn12 H56 C56 N24 O36"
_cell_length_a       11.69
_cell_length_b       17.998
_cell_length_c       14.7888
_cell_angle_alpha    90
_cell_angle_beta     116.539
_cell_angle_gamma    90

_symmetry_space_group_name_H-M    "P 1"
_symmetry_Int_Tables_number       1

loop_
  _symmetry_equiv_pos_as_xyz
  'x, y, z'

loop_
  _atom_site_type_symbol
  _atom_site_label
  _atom_site_symmetry_multiplicity
  _atom_site_fract_x
  _atom_site_fract_y
  _atom_site_fract_z
  _atom_site_occupancy
  _atom_site_charge
Zn  Zn1       1.0  0.17675  0.83342  0.11334  1.0000 0.785499231
Zn  Zn2       1.0  0.82325  0.33342  0.38666  1.0000 0.7849928896
Zn  Zn3       1.0  0.82325  0.16658  0.88666  1.0000 0.7849928896
Zn  Zn4       1.0  0.17675  0.66658  0.61334  1.0000 0.785499231
Zn  Zn5       1.0  0.01219  0.85514  0.86125  1.0000 0.8917313377
Zn  Zn6       1.0  0.98781  0.35514  0.63875  1.0000 0.8917313377
Zn  Zn7       1.0  0.98781  0.14486  0.13875  1.0000 0.8917313377
Zn  Zn8       1.0  0.01219  0.64486  0.36125  1.0000 0.8917313377
Zn  Zn9       1.0  0.52227  0.59419  0.39412  1.0000 0.7849928896
Zn  Zn10      1.0  0.47773  0.09419  0.10588  1.0000 0.7849928896
Zn  Zn11      1.0  0.47773  0.40581  0.60588  1.0000 0.7849928896
Zn  Zn12      1.0  0.52227  0.90581  0.89412  1.0000 0.7849928896
H   H1        1.0  0.07150  0.75490  0.98400  1.0000 0.365413175
H   H2        1.0  0.92850  0.25490  0.51600  1.0000 0.365413175
H   H3        1.0  0.92850  0.24510  0.01600  1.0000 0.365413175
H   H4        1.0  0.07150  0.74510  0.48400  1.0000 0.365413175
H   H5        1.0  0.44960  0.74780  0.25310  1.0000 0.1002289123
H   H6        1.0  0.55040  0.24780  0.24690  1.0000 0.1002289123
H   H7        1.0  0.55040  0.25220  0.74690  1.0000 0.1002289123
H   H8        1.0  0.44960  0.75220  0.75310  1.0000 0.1002289123
H   H9        1.0  0.58420  0.57560  0.57540  1.0000 0.2564259927
H   H10       1.0  0.41580  0.07560  0.92460  1.0000 0.2564259927
H   H11       1.0  0.41580  0.42440  0.42460  1.0000 0.2564259927
H   H12       1.0  0.58420  0.92440  0.07540  1.0000 0.2564259927
H   H13       1.0  0.77350  0.55550  0.57520  1.0000 0.1098973861
H   H14       1.0  0.22650  0.05550  0.92480  1.0000 0.1098973861
H   H15       1.0  0.22650  0.44450  0.42480  1.0000 0.1098973861
H   H16       1.0  0.77350  0.94450  0.07520  1.0000 0.1098973861
H   H17       1.0  0.78560  0.64100  0.56180  1.0000 0.1098973861
H   H18       1.0  0.21440  0.14100  0.93820  1.0000 0.1098973861
H   H19       1.0  0.21440  0.35900  0.43820  1.0000 0.1098973861
H   H20       1.0  0.78560  0.85900  0.06180  1.0000 0.1098973861
H   H21       1.0  0.97700  0.96190  0.11870  1.0000 0.1002289123
H   H22       1.0  0.02300  0.46190  0.38130  1.0000 0.1002289123
H   H23       1.0  0.02300  0.03810  0.88130  1.0000 0.1002289123
H   H24       1.0  0.97700  0.53810  0.61870  1.0000 0.1002289123
H   H25       1.0  0.60820  0.72400  0.54770  1.0000 0.1098973861
H   H26       1.0  0.39180  0.22400  0.95230  1.0000 0.1098973861
H   H27       1.0  0.39180  0.27600  0.45230  1.0000 0.1098973861
H   H28       1.0  0.60820  0.77600  0.04770  1.0000 0.1098973861
H   H29       1.0  0.48940  0.68810  0.55330  1.0000 0.1222837846
H   H30       1.0  0.51060  0.18810  0.94670  1.0000 0.1222837846
H   H31       1.0  0.51060  0.31190  0.44670  1.0000 0.1222837846
H   H32       1.0  0.48940  0.81190  0.05330  1.0000 0.1222837846
H   H33       1.0  0.90880  0.61020  0.72800  1.0000 0.1222837846
H   H34       1.0  0.09120  0.11020  0.77200  1.0000 0.1222837846
H   H35       1.0  0.09120  0.38980  0.27200  1.0000 0.1222837846
H   H36       1.0  0.90880  0.88980  0.22800  1.0000 0.1222837846
H   H37       1.0  0.79070  0.57390  0.73470  1.0000 0.1222837846
H   H38       1.0  0.20930  0.07390  0.76530  1.0000 0.1222837846
H   H39       1.0  0.20930  0.42610  0.26530  1.0000 0.1222837846
H   H40       1.0  0.79070  0.92610  0.23470  1.0000 0.1222837846
H   H41       1.0  0.61150  0.65810  0.72200  1.0000 0.1222837846
H   H42       1.0  0.38850  0.15810  0.77800  1.0000 0.1222837846
H   H43       1.0  0.38850  0.34190  0.27800  1.0000 0.1222837846
H   H44       1.0  0.61150  0.84190  0.22200  1.0000 0.1222837846
H   H45       1.0  0.62600  0.74360  0.70800  1.0000 0.1222837846
H   H46       1.0  0.37400  0.24360  0.79200  1.0000 0.1222837846
H   H47       1.0  0.37400  0.25640  0.29200  1.0000 0.1222837846
H   H48       1.0  0.62600  0.75640  0.20800  1.0000 0.1222837846
H   H49       1.0  0.82070  0.68880  0.79970  1.0000 0.2734828751
H   H50       1.0  0.17930  0.18880  0.70030  1.0000 0.2734828751
H   H51       1.0  0.17930  0.31120  0.20030  1.0000 0.2734828751
H   H52       1.0  0.82070  0.81120  0.29970  1.0000 0.2734828751
H   H53       1.0  0.81590  0.72180  0.70820  1.0000 0.2787677805
H   H54       1.0  0.18410  0.22180  0.79180  1.0000 0.2787677805
H   H55       1.0  0.18410  0.27820  0.29180  1.0000 0.2787677805
H   H56       1.0  0.81590  0.77820  0.20820  1.0000 0.2787677805
C   C1        1.0  0.19160  0.71470  0.24900  1.0000 -0.0076170593
C   C2        1.0  0.80840  0.21470  0.25100  1.0000 -0.0076170593
C   C3        1.0  0.80840  0.28530  0.75100  1.0000 -0.0076170593
C   C4        1.0  0.19160  0.78530  0.74900  1.0000 -0.0076170593
C   C5        1.0  0.38070  0.72840  0.26070  1.0000 0.1810932021
C   C6        1.0  0.61930  0.22840  0.23930  1.0000 0.1810932021
C   C7        1.0  0.61930  0.27160  0.73930  1.0000 0.1810932021
C   C8        1.0  0.38070  0.77160  0.76070  1.0000 0.1810932021
C   C9        1.0  0.25620  0.59160  0.36090  1.0000 0.5530925701
C   C10       1.0  0.74380  0.09160  0.13910  1.0000 0.5530925701
C   C11       1.0  0.74380  0.40840  0.63910  1.0000 0.5530925701
C   C12       1.0  0.25620  0.90840  0.86090  1.0000 0.5530925701
C   C13       1.0  0.27150  0.65860  0.30970  1.0000 -0.0010534072
C   C14       1.0  0.72850  0.15860  0.19030  1.0000 -0.0010534072
C   C15       1.0  0.72850  0.34140  0.69030  1.0000 -0.0010534072
C   C16       1.0  0.27150  0.84140  0.80970  1.0000 -0.0010534072
C   C17       1.0  0.24690  0.13620  0.14440  1.0000 0.5581616025
C   C18       1.0  0.75310  0.63620  0.35560  1.0000 0.5581616025
C   C19       1.0  0.75310  0.86380  0.85560  1.0000 0.5581616025
C   C20       1.0  0.24690  0.36380  0.64440  1.0000 0.5581616025
C   C21       1.0  0.19760  0.05890  0.13470  1.0000 -0.0175880249
C   C22       1.0  0.80240  0.55890  0.36530  1.0000 -0.0175880249
C   C23       1.0  0.80240  0.94110  0.86530  1.0000 -0.0175880249
C   C24       1.0  0.19760  0.44110  0.63470  1.0000 -0.0175880249
C   C25       1.0  0.75250  0.60410  0.59180  1.0000 -0.11446005
C   C26       1.0  0.24750  0.10410  0.90820  1.0000 -0.11446005
C   C27       1.0  0.24750  0.39590  0.40820  1.0000 -0.11446005
C   C28       1.0  0.75250  0.89590  0.09180  1.0000 -0.11446005
C   C29       1.0  0.05660  0.73870  0.21090  1.0000 0.5581616025
C   C30       1.0  0.94340  0.23870  0.28910  1.0000 0.5581616025
C   C31       1.0  0.94340  0.26130  0.78910  1.0000 0.5581616025
C   C32       1.0  0.05660  0.76130  0.71090  1.0000 0.5581616025
C   C33       1.0  0.05290  0.98140  0.12280  1.0000 0.1810932021
C   C34       1.0  0.94710  0.48140  0.37720  1.0000 0.1810932021
C   C35       1.0  0.94710  0.01860  0.87720  1.0000 0.1810932021
C   C36       1.0  0.05290  0.51860  0.62280  1.0000 0.1810932021
C   C37       1.0  0.58130  0.68430  0.57830  1.0000 -0.1038314708
C   C38       1.0  0.41870  0.18430  0.92170  1.0000 -0.1038314708
C   C39       1.0  0.41870  0.31570  0.42170  1.0000 -0.1038314708
C   C40       1.0  0.58130  0.81570  0.07830  1.0000 -0.1038314708
C   C41       1.0  0.81690  0.61350  0.70350  1.0000 -0.0899520655
C   C42       1.0  0.18310  0.11350  0.79650  1.0000 -0.0899520655
C   C43       1.0  0.18310  0.38650  0.29650  1.0000 -0.0899520655
C   C44       1.0  0.81690  0.88650  0.20350  1.0000 -0.0899520655
C   C45       1.0  0.64490  0.69440  0.69140  1.0000 -0.0899520655
C   C46       1.0  0.35510  0.19440  0.80860  1.0000 -0.0899520655
C   C47       1.0  0.35510  0.30560  0.30860  1.0000 -0.0899520655
C   C48       1.0  0.64490  0.80560  0.19140  1.0000 -0.0899520655
C   C49       1.0  0.35920  0.95380  0.13510  1.0000 0.5581616025
C   C50       1.0  0.64080  0.45380  0.36490  1.0000 0.5581616025
C   C51       1.0  0.64080  0.04620  0.86490  1.0000 0.5581616025
C   C52       1.0  0.35920  0.54620  0.63510  1.0000 0.5581616025
C   C53       1.0  0.23960  0.98820  0.12880  1.0000 -0.0010534072
C   C54       1.0  0.76040  0.48820  0.37120  1.0000 -0.0010534072
C   C55       1.0  0.76040  0.01180  0.87120  1.0000 -0.0010534072
C   C56       1.0  0.23960  0.51180  0.62880  1.0000 -0.0010534072
N   N1        1.0  0.26380  0.75850  0.21810  1.0000 -0.3208114011
N   N2        1.0  0.73620  0.25850  0.28190  1.0000 -0.3208114011
N   N3        1.0  0.73620  0.24150  0.78190  1.0000 -0.3208114011
N   N4        1.0  0.26380  0.74150  0.71810  1.0000 -0.3208114011
N   N5        1.0  0.07920  0.05310  0.13070  1.0000 -0.3310702731
N   N6        1.0  0.92080  0.55310  0.36930  1.0000 -0.3310702731
N   N7        1.0  0.92080  0.94690  0.86930  1.0000 -0.3310702731
N   N8        1.0  0.07920  0.44690  0.63070  1.0000 -0.3310702731
N   N9        1.0  0.38890  0.66820  0.31470  1.0000 -0.3208114011
N   N10       1.0  0.61110  0.16820  0.18530  1.0000 -0.3208114011
N   N11       1.0  0.61110  0.33180  0.68530  1.0000 -0.3208114011
N   N12       1.0  0.38890  0.83180  0.81470  1.0000 -0.3208114011
N   N13       1.0  0.61260  0.61140  0.54690  1.0000 -0.3208114011
N   N14       1.0  0.38740  0.11140  0.95310  1.0000 -0.3208114011
N   N15       1.0  0.38740  0.38860  0.45310  1.0000 -0.3208114011
N   N16       1.0  0.61260  0.88860  0.04690  1.0000 -0.3208114011
N   N17       1.0  0.78430  0.68520  0.73190  1.0000 -0.170937105
N   N18       1.0  0.21570  0.18520  0.76810  1.0000 -0.170937105
N   N19       1.0  0.21570  0.31480  0.26810  1.0000 -0.170937105
N   N20       1.0  0.78430  0.81480  0.23190  1.0000 -0.170937105
N   N21       1.0  0.14620  0.94020  0.12130  1.0000 -0.3208114011
N   N22       1.0  0.85380  0.44020  0.37870  1.0000 -0.3208114011
N   N23       1.0  0.85380  0.05980  0.87870  1.0000 -0.3208114011
N   N24       1.0  0.14620  0.55980  0.62130  1.0000 -0.3208114011
O   O1        1.0  0.11020  0.79350  0.97780  1.0000 -0.8150611957
O   O2        1.0  0.88980  0.29350  0.52220  1.0000 -0.8150611957
O   O3        1.0  0.88980  0.20650  0.02220  1.0000 -0.8145745834
O   O4        1.0  0.11020  0.70650  0.47780  1.0000 -0.8145745834
O   O5        1.0  0.02100  0.79120  0.15010  1.0000 -0.5373914281
O   O6        1.0  0.97900  0.29120  0.34990  1.0000 -0.5373914281
O   O7        1.0  0.97900  0.20880  0.84990  1.0000 -0.5373914281
O   O8        1.0  0.02100  0.70880  0.65010  1.0000 -0.5373914281
O   O9        1.0  0.14950  0.57660  0.35690  1.0000 -0.5373914281
O   O10       1.0  0.85050  0.07660  0.14310  1.0000 -0.5373914281
O   O11       1.0  0.85050  0.42340  0.64310  1.0000 -0.5373914281
O   O12       1.0  0.14950  0.92340  0.85690  1.0000 -0.5373914281
O   O13       1.0  0.35210  0.55090  0.40070  1.0000 -0.5138179798
O   O14       1.0  0.64790  0.05090  0.09930  1.0000 -0.5138179798
O   O15       1.0  0.64790  0.44910  0.59930  1.0000 -0.5138179798
O   O16       1.0  0.35210  0.94910  0.90070  1.0000 -0.5138179798
O   O17       1.0  0.45240  0.99280  0.14320  1.0000 -0.5373914281
O   O18       1.0  0.54760  0.49280  0.35680  1.0000 -0.5373914281
O   O19       1.0  0.54760  0.00720  0.85680  1.0000 -0.5373914281
O   O20       1.0  0.45240  0.50720  0.64320  1.0000 -0.5373914281
O   O21       1.0  0.98170  0.70650  0.24080  1.0000 -0.5785394748
O   O22       1.0  0.01830  0.20650  0.25920  1.0000 -0.5785394748
O   O23       1.0  0.01830  0.29350  0.75920  1.0000 -0.5785394748
O   O24       1.0  0.98170  0.79350  0.74080  1.0000 -0.5785394748
O   O25       1.0  0.34970  0.15050  0.14170  1.0000 -0.5459243794
O   O26       1.0  0.65030  0.65050  0.35830  1.0000 -0.5459243794
O   O27       1.0  0.65030  0.84950  0.85830  1.0000 -0.5459243794
O   O28       1.0  0.34970  0.34950  0.64170  1.0000 -0.5459243794
O   O29       1.0  0.17680  0.18620  0.15340  1.0000 -0.5732729723
O   O30       1.0  0.82320  0.68620  0.34660  1.0000 -0.5732729723
O   O31       1.0  0.82320  0.81380  0.84660  1.0000 -0.5732729723
O   O32       1.0  0.17680  0.31380  0.65340  1.0000 -0.5732729723
O   O33       1.0  0.35880  0.88530  0.13150  1.0000 -0.518085285
O   O34       1.0  0.64120  0.38530  0.36850  1.0000 -0.518085285
O   O35       1.0  0.64120  0.11470  0.86850  1.0000 -0.518085285
O   O36       1.0  0.35880  0.61470  0.63150  1.0000 -0.518085285
