# DDEC6 charges by PACMAN v1.1 (https://github.com/mtap-research/PACMAN-charge/)
data_2008[Cu][rob]3[ASR]3
_chemical_formula_sum              "Cu4 H44 C44 N4 O16"
_cell_length_a       13.9945
_cell_length_b       13.9945
_cell_length_c       8.509
_cell_angle_alpha    89.36
_cell_angle_beta     90.64
_cell_angle_gamma    123.94

_symmetry_space_group_name_H-M    "P 1"
_symmetry_Int_Tables_number       1

loop_
  _symmetry_equiv_pos_as_xyz
  'x, y, z'

loop_
  _atom_site_type_symbol
  _atom_site_label
  _atom_site_symmetry_multiplicity
  _atom_site_fract_x
  _atom_site_fract_y
  _atom_site_fract_z
  _atom_site_occupancy
  _atom_site_charge
Cu  Cu1       1.0  0.49909  0.91038  0.55381  1.0000 0.747894043
Cu  Cu2       1.0  0.91038  0.49910  0.94619  1.0000 0.747894043
Cu  Cu3       1.0  0.50091  0.08962  0.44619  1.0000 0.747894043
Cu  Cu4       1.0  0.08962  0.50091  0.05381  1.0000 0.747894043
H   H1        1.0  0.32120  0.65860  0.65160  1.0000 0.1120656709
H   H2        1.0  0.65860  0.32120  0.84840  1.0000 0.1120656709
H   H3        1.0  0.67880  0.34141  0.34840  1.0000 0.1120656709
H   H4        1.0  0.34141  0.67880  0.15160  1.0000 0.1120656709
H   H5        1.0  0.30230  0.51209  0.80650  1.0000 0.1404109689
H   H6        1.0  0.51209  0.30230  0.69350  1.0000 0.1404109689
H   H7        1.0  0.69770  0.48790  0.19350  1.0000 0.1404109689
H   H8        1.0  0.48790  0.69770  0.30650  1.0000 0.1404109689
H   H9        1.0  0.64490  0.71430  0.89700  1.0000 0.1281869851
H   H10       1.0  0.71430  0.64490  0.60300  1.0000 0.1281869851
H   H11       1.0  0.35510  0.28570  0.10300  1.0000 0.1281869851
H   H12       1.0  0.28570  0.35510  0.39700  1.0000 0.1281869851
H   H13       1.0  0.65480  0.85420  0.73630  1.0000 0.1120656709
H   H14       1.0  0.85420  0.65480  0.76370  1.0000 0.1120656709
H   H15       1.0  0.34520  0.14580  0.26370  1.0000 0.1120656709
H   H16       1.0  0.14580  0.34520  0.23630  1.0000 0.1120656709
H   H17       1.0  0.38210  0.43289  0.97480  1.0000 0.1170298474
H   H18       1.0  0.43289  0.38210  0.52520  1.0000 0.1170298474
H   H19       1.0  0.61790  0.56710  0.02520  1.0000 0.1170298474
H   H20       1.0  0.56710  0.61790  0.47480  1.0000 0.1170298474
H   H21       1.0  0.65280  0.92839  0.09610  1.0000 0.1281869851
H   H22       1.0  0.92839  0.65280  0.40390  1.0000 0.1281869851
H   H23       1.0  0.34720  0.07161  0.90390  1.0000 0.1281869851
H   H24       1.0  0.07160  0.34720  0.59610  1.0000 0.1281869851
H   H25       1.0  0.54650  0.91749  0.00480  1.0000 0.1404109689
H   H26       1.0  0.91749  0.54650  0.49520  1.0000 0.1404109689
H   H27       1.0  0.45350  0.08251  0.99520  1.0000 0.1404109689
H   H28       1.0  0.08250  0.45350  0.50480  1.0000 0.1404109689
H   H29       1.0  0.72420  0.07959  0.90940  1.0000 0.0922076794
H   H30       1.0  0.07959  0.72420  0.59060  1.0000 0.0922076794
H   H31       1.0  0.27580  0.92041  0.09060  1.0000 0.0922076794
H   H32       1.0  0.92040  0.27580  0.40940  1.0000 0.0922076794
H   H33       1.0  0.64960  0.12119  0.98670  1.0000 0.0986032988
H   H34       1.0  0.12120  0.64960  0.51330  1.0000 0.0986032988
H   H35       1.0  0.35040  0.87880  0.01330  1.0000 0.0986032988
H   H36       1.0  0.87880  0.35040  0.48670  1.0000 0.0986032988
H   H37       1.0  0.83930  0.13109  0.13510  1.0000 0.1281869851
H   H38       1.0  0.13109  0.83930  0.36490  1.0000 0.1281869851
H   H39       1.0  0.16070  0.86891  0.86490  1.0000 0.1281869851
H   H40       1.0  0.86890  0.16070  0.63510  1.0000 0.1281869851
H   H41       1.0  0.75940  0.16059  0.22550  1.0000 0.1404109689
H   H42       1.0  0.16059  0.75940  0.27450  1.0000 0.1404109689
H   H43       1.0  0.24060  0.83940  0.77450  1.0000 0.1404109689
H   H44       1.0  0.83940  0.24060  0.72550  1.0000 0.1404109689
C   C1        1.0  0.38790  0.66948  0.70080  1.0000 0.0986032988
C   C2        1.0  0.66948  0.38790  0.79920  1.0000 0.0986032988
C   C3        1.0  0.61210  0.33052  0.29920  1.0000 0.0986032988
C   C4        1.0  0.33052  0.61210  0.20080  1.0000 0.0986032988
C   C5        1.0  0.37594  0.58186  0.79420  1.0000 -0.1937169489
C   C6        1.0  0.58186  0.37594  0.70580  1.0000 -0.1937169489
C   C7        1.0  0.62406  0.41814  0.20580  1.0000 -0.1937169489
C   C8        1.0  0.41814  0.62406  0.29420  1.0000 -0.1937169489
C   C9        1.0  0.47166  0.59513  0.86830  1.0000 0.1515750083
C   C10       1.0  0.59513  0.47166  0.63170  1.0000 0.1515750083
C   C11       1.0  0.52834  0.40486  0.13170  1.0000 0.1515750083
C   C12       1.0  0.40486  0.52834  0.36830  1.0000 0.1515750083
C   C13       1.0  0.57739  0.70020  0.84610  1.0000 -0.2093649713
C   C14       1.0  0.70020  0.57739  0.65390  1.0000 -0.2093649713
C   C15       1.0  0.42261  0.29979  0.15390  1.0000 -0.2093649713
C   C16       1.0  0.29979  0.42261  0.34610  1.0000 -0.2093649713
C   C17       1.0  0.58227  0.78353  0.75050  1.0000 0.0808933618
C   C18       1.0  0.78353  0.58227  0.74950  1.0000 0.0808933618
C   C19       1.0  0.41773  0.21647  0.24950  1.0000 0.0808933618
C   C20       1.0  0.21648  0.41773  0.25050  1.0000 0.0808933618
C   C21       1.0  0.45775  0.50004  0.96370  1.0000 -0.1490815637
C   C22       1.0  0.50004  0.45775  0.53630  1.0000 -0.1490815637
C   C23       1.0  0.54225  0.49995  0.03630  1.0000 -0.1490815637
C   C24       1.0  0.49995  0.54225  0.46370  1.0000 -0.1490815637
C   C25       1.0  0.56133  0.96945  0.23550  1.0000 0.623629758
C   C26       1.0  0.96945  0.56133  0.26450  1.0000 0.623629758
C   C27       1.0  0.43867  0.03055  0.76450  1.0000 0.623629758
C   C28       1.0  0.03055  0.43867  0.73550  1.0000 0.623629758
C   C29       1.0  0.61029  0.96536  0.07960  1.0000 -0.3281450776
C   C30       1.0  0.96537  0.61029  0.42040  1.0000 -0.3281450776
C   C31       1.0  0.38971  0.03463  0.92040  1.0000 -0.3281450776
C   C32       1.0  0.03463  0.38971  0.57960  1.0000 -0.3281450776
C   C33       1.0  0.69283  0.08586  0.00960  1.0000 -0.0946160687
C   C34       1.0  0.08586  0.69283  0.49040  1.0000 -0.0946160687
C   C35       1.0  0.30717  0.91413  0.99040  1.0000 -0.0946160687
C   C36       1.0  0.91414  0.30717  0.50960  1.0000 -0.0946160687
C   C37       1.0  0.79218  0.16334  0.12170  1.0000 -0.3281450776
C   C38       1.0  0.16333  0.79218  0.37830  1.0000 -0.3281450776
C   C39       1.0  0.20782  0.83666  0.87830  1.0000 -0.3281450776
C   C40       1.0  0.83666  0.20782  0.62170  1.0000 -0.3281450776
C   C41       1.0  0.87034  0.28784  0.07100  1.0000 0.623629758
C   C42       1.0  0.28783  0.87034  0.42900  1.0000 0.623629758
C   C43       1.0  0.12966  0.71217  0.92900  1.0000 0.623629758
C   C44       1.0  0.71216  0.12966  0.57100  1.0000 0.623629758
N   N1        1.0  0.48994  0.76960  0.67640  1.0000 -0.2509129589
N   N2        1.0  0.76959  0.48994  0.82360  1.0000 -0.2509129589
N   N3        1.0  0.51006  0.23040  0.32360  1.0000 -0.2509129589
N   N4        1.0  0.23040  0.51006  0.17640  1.0000 -0.2509129589
O   O1        1.0  0.54687  0.89852  0.34118  1.0000 -0.5381583629
O   O2        1.0  0.89853  0.54687  0.15882  1.0000 -0.5381583629
O   O3        1.0  0.45313  0.10147  0.65882  1.0000 -0.5381583629
O   O4        1.0  0.10147  0.45313  0.84118  1.0000 -0.5381583629
O   O5        1.0  0.53912  0.04387  0.25047  1.0000 -0.5178571997
O   O6        1.0  0.04388  0.53912  0.24953  1.0000 -0.5178571997
O   O7        1.0  0.46088  0.95613  0.74953  1.0000 -0.5178571997
O   O8        1.0  0.95613  0.46088  0.75047  1.0000 -0.5178571997
O   O9        1.0  0.97612  0.33636  0.09630  1.0000 -0.5269965139
O   O10       1.0  0.33635  0.97612  0.40370  1.0000 -0.5269965139
O   O11       1.0  0.02388  0.66364  0.90370  1.0000 -0.5269965139
O   O12       1.0  0.66365  0.02388  0.59630  1.0000 -0.5269965139
O   O13       1.0  0.82471  0.33566  0.01100  1.0000 -0.5269965139
O   O14       1.0  0.33566  0.82471  0.48900  1.0000 -0.5269965139
O   O15       1.0  0.17529  0.66434  0.98900  1.0000 -0.5269965139
O   O16       1.0  0.66434  0.17529  0.51100  1.0000 -0.5269965139
