# DDEC6 charges by PACMAN v1.1 (https://github.com/mtap-research/PACMAN-charge/)
data_2011[Cd][nuc]3[ASR]6
_chemical_formula_sum              "Cd4 H144 C192 N48"
_cell_length_a       15.8591
_cell_length_b       15.8591
_cell_length_c       21.685
_cell_angle_alpha    90
_cell_angle_beta     90
_cell_angle_gamma    90

_symmetry_space_group_name_H-M    "P 1"
_symmetry_Int_Tables_number       1

loop_
  _symmetry_equiv_pos_as_xyz
  'x, y, z'

loop_
  _atom_site_type_symbol
  _atom_site_label
  _atom_site_symmetry_multiplicity
  _atom_site_fract_x
  _atom_site_fract_y
  _atom_site_fract_z
  _atom_site_occupancy
  _atom_site_charge
Cd  Cd1       1.0  0.55863  0.55863  0.00000  1.0000 0.6413042869
Cd  Cd2       1.0  0.44137  0.44137  0.50000  1.0000 0.6413042869
Cd  Cd3       1.0  0.94137  0.05863  0.75000  1.0000 0.6413042869
Cd  Cd4       1.0  0.05863  0.94137  0.25000  1.0000 0.6413042869
H   H1        1.0  0.65980  0.44030  0.09150  1.0000 0.1003391743
H   H2        1.0  0.34020  0.55970  0.59150  1.0000 0.1003391743
H   H3        1.0  0.05970  0.15980  0.84150  1.0000 0.1003391743
H   H4        1.0  0.94030  0.84020  0.34150  1.0000 0.1003391743
H   H5        1.0  0.84020  0.94030  0.65850  1.0000 0.1003391743
H   H6        1.0  0.15980  0.05970  0.15850  1.0000 0.1003391743
H   H7        1.0  0.44030  0.65980  0.90850  1.0000 0.1003391743
H   H8        1.0  0.55970  0.34020  0.40850  1.0000 0.1003391743
H   H9        1.0  0.76640  0.34570  0.10620  1.0000 0.1287717819
H   H10       1.0  0.23360  0.65430  0.60620  1.0000 0.1287717819
H   H11       1.0  0.15430  0.26640  0.85620  1.0000 0.1287717819
H   H12       1.0  0.84570  0.73360  0.35620  1.0000 0.1287717819
H   H13       1.0  0.73360  0.84570  0.64380  1.0000 0.1287717819
H   H14       1.0  0.26640  0.15430  0.14380  1.0000 0.1287717819
H   H15       1.0  0.34570  0.76640  0.89380  1.0000 0.1287717819
H   H16       1.0  0.65430  0.23360  0.39380  1.0000 0.1287717819
H   H17       1.0  0.84820  0.40080  0.93630  1.0000 0.1287717819
H   H18       1.0  0.15180  0.59920  0.43630  1.0000 0.1287717819
H   H19       1.0  0.09920  0.34820  0.68630  1.0000 0.1287717819
H   H20       1.0  0.90080  0.65180  0.18630  1.0000 0.1287717819
H   H21       1.0  0.65180  0.90080  0.81370  1.0000 0.1287717819
H   H22       1.0  0.34820  0.09920  0.31370  1.0000 0.1287717819
H   H23       1.0  0.40080  0.84820  0.06370  1.0000 0.1287717819
H   H24       1.0  0.59920  0.15180  0.56370  1.0000 0.1287717819
H   H25       1.0  0.73610  0.49090  0.92560  1.0000 0.0946414943
H   H26       1.0  0.26390  0.50910  0.42560  1.0000 0.0946414943
H   H27       1.0  0.00910  0.23610  0.67560  1.0000 0.0946414943
H   H28       1.0  0.99090  0.76390  0.17560  1.0000 0.0946414943
H   H29       1.0  0.76390  0.99090  0.82440  1.0000 0.0946414943
H   H30       1.0  0.23610  0.00910  0.32440  1.0000 0.0946414943
H   H31       1.0  0.49090  0.73610  0.07440  1.0000 0.0946414943
H   H32       1.0  0.50910  0.26390  0.57440  1.0000 0.0946414943
H   H33       1.0  0.96770  0.33730  0.96260  1.0000 0.1112559467
H   H34       1.0  0.03230  0.66270  0.46260  1.0000 0.1112559467
H   H35       1.0  0.16270  0.46770  0.71260  1.0000 0.1112559467
H   H36       1.0  0.83730  0.53230  0.21260  1.0000 0.1112559467
H   H37       1.0  0.53230  0.83730  0.78740  1.0000 0.1112559467
H   H38       1.0  0.46770  0.16270  0.28740  1.0000 0.1112559467
H   H39       1.0  0.33730  0.96770  0.03740  1.0000 0.1112559467
H   H40       1.0  0.66270  0.03230  0.53740  1.0000 0.1112559467
H   H41       1.0  0.06590  0.23140  0.97070  1.0000 0.1112559467
H   H42       1.0  0.93410  0.76860  0.47070  1.0000 0.1112559467
H   H43       1.0  0.26860  0.56590  0.72070  1.0000 0.1112559467
H   H44       1.0  0.73140  0.43410  0.22070  1.0000 0.1112559467
H   H45       1.0  0.43410  0.73140  0.77930  1.0000 0.1112559467
H   H46       1.0  0.56590  0.26860  0.27930  1.0000 0.1112559467
H   H47       1.0  0.23140  0.06590  0.02930  1.0000 0.1112559467
H   H48       1.0  0.76860  0.93410  0.52930  1.0000 0.1112559467
H   H49       1.0  0.04850  0.12420  0.04070  1.0000 0.1112559467
H   H50       1.0  0.95150  0.87580  0.54070  1.0000 0.1112559467
H   H51       1.0  0.37580  0.54850  0.79070  1.0000 0.1112559467
H   H52       1.0  0.62420  0.45150  0.29070  1.0000 0.1112559467
H   H53       1.0  0.45150  0.62420  0.70930  1.0000 0.1112559467
H   H54       1.0  0.54850  0.37580  0.20930  1.0000 0.1112559467
H   H55       1.0  0.12420  0.04850  0.95930  1.0000 0.1112559467
H   H56       1.0  0.87580  0.95150  0.45930  1.0000 0.1112559467
H   H57       1.0  0.82710  0.22210  0.09290  1.0000 0.1112559467
H   H58       1.0  0.17290  0.77790  0.59290  1.0000 0.1112559467
H   H59       1.0  0.27790  0.32710  0.84290  1.0000 0.1112559467
H   H60       1.0  0.72210  0.67290  0.34290  1.0000 0.1112559467
H   H61       1.0  0.67290  0.72210  0.65710  1.0000 0.1112559467
H   H62       1.0  0.32710  0.27790  0.15710  1.0000 0.1112559467
H   H63       1.0  0.22210  0.82710  0.90710  1.0000 0.1112559467
H   H64       1.0  0.77790  0.17290  0.40710  1.0000 0.1112559467
H   H65       1.0  0.79950  0.00720  0.28990  1.0000 0.1112559467
H   H66       1.0  0.20050  0.99280  0.78990  1.0000 0.1112559467
H   H67       1.0  0.49280  0.29950  0.03990  1.0000 0.1112559467
H   H68       1.0  0.50720  0.70050  0.53990  1.0000 0.1112559467
H   H69       1.0  0.70050  0.50720  0.46010  1.0000 0.1112559467
H   H70       1.0  0.29950  0.49280  0.96010  1.0000 0.1112559467
H   H71       1.0  0.00720  0.79950  0.71010  1.0000 0.1112559467
H   H72       1.0  0.99280  0.20050  0.21010  1.0000 0.1112559467
H   H73       1.0  0.70240  0.91410  0.33360  1.0000 0.1112559467
H   H74       1.0  0.29760  0.08590  0.83360  1.0000 0.1112559467
H   H75       1.0  0.58590  0.20240  0.08360  1.0000 0.1112559467
H   H76       1.0  0.41410  0.79760  0.58360  1.0000 0.1112559467
H   H77       1.0  0.79760  0.41410  0.41640  1.0000 0.1112559467
H   H78       1.0  0.20240  0.58590  0.91640  1.0000 0.1112559467
H   H79       1.0  0.91410  0.70240  0.66640  1.0000 0.1112559467
H   H80       1.0  0.08590  0.29760  0.16640  1.0000 0.1112559467
H   H81       1.0  0.65020  0.80140  0.27830  1.0000 0.0946414943
H   H82       1.0  0.34980  0.19860  0.77830  1.0000 0.0946414943
H   H83       1.0  0.69860  0.15020  0.02830  1.0000 0.0946414943
H   H84       1.0  0.30140  0.84980  0.52830  1.0000 0.0946414943
H   H85       1.0  0.84980  0.30140  0.47170  1.0000 0.0946414943
H   H86       1.0  0.15020  0.69860  0.97170  1.0000 0.0946414943
H   H87       1.0  0.80140  0.65020  0.72170  1.0000 0.0946414943
H   H88       1.0  0.19860  0.34980  0.22170  1.0000 0.0946414943
H   H89       1.0  0.80140  0.86190  0.13720  1.0000 0.1112559467
H   H90       1.0  0.19860  0.13810  0.63720  1.0000 0.1112559467
H   H91       1.0  0.63810  0.30140  0.88720  1.0000 0.1112559467
H   H92       1.0  0.36190  0.69860  0.38720  1.0000 0.1112559467
H   H93       1.0  0.69860  0.36190  0.61280  1.0000 0.1112559467
H   H94       1.0  0.30140  0.63810  0.11280  1.0000 0.1112559467
H   H95       1.0  0.86190  0.80140  0.86280  1.0000 0.1112559467
H   H96       1.0  0.13810  0.19860  0.36280  1.0000 0.1112559467
H   H97       1.0  0.58940  0.71210  0.21600  1.0000 0.1230940248
H   H98       1.0  0.41060  0.28790  0.71600  1.0000 0.1230940248
H   H99       1.0  0.78790  0.08940  0.96600  1.0000 0.1230940248
H   H100      1.0  0.21210  0.91060  0.46600  1.0000 0.1230940248
H   H101      1.0  0.91060  0.21210  0.53400  1.0000 0.1230940248
H   H102      1.0  0.08940  0.78790  0.03400  1.0000 0.1230940248
H   H103      1.0  0.71210  0.58940  0.78400  1.0000 0.1230940248
H   H104      1.0  0.28790  0.41060  0.28400  1.0000 0.1230940248
H   H105      1.0  0.54050  0.61040  0.15000  1.0000 0.1003391743
H   H106      1.0  0.45950  0.38960  0.65000  1.0000 0.1003391743
H   H107      1.0  0.88960  0.04050  0.90000  1.0000 0.1003391743
H   H108      1.0  0.11040  0.95950  0.40000  1.0000 0.1003391743
H   H109      1.0  0.95950  0.11040  0.60000  1.0000 0.1003391743
H   H110      1.0  0.04050  0.88960  0.10000  1.0000 0.1003391743
H   H111      1.0  0.61040  0.54050  0.85000  1.0000 0.1003391743
H   H112      1.0  0.38960  0.45950  0.35000  1.0000 0.1003391743
H   H113      1.0  0.73130  0.63990  0.04130  1.0000 0.1003391743
H   H114      1.0  0.26870  0.36010  0.54130  1.0000 0.1003391743
H   H115      1.0  0.86010  0.23130  0.79130  1.0000 0.1003391743
H   H116      1.0  0.13990  0.76870  0.29130  1.0000 0.1003391743
H   H117      1.0  0.76870  0.13990  0.70870  1.0000 0.1003391743
H   H118      1.0  0.23130  0.86010  0.20870  1.0000 0.1003391743
H   H119      1.0  0.63990  0.73130  0.95870  1.0000 0.1003391743
H   H120      1.0  0.36010  0.26870  0.45870  1.0000 0.1003391743
H   H121      1.0  0.78460  0.74440  0.10170  1.0000 0.1287717819
H   H122      1.0  0.21540  0.25560  0.60170  1.0000 0.1287717819
H   H123      1.0  0.75560  0.28460  0.85170  1.0000 0.1287717819
H   H124      1.0  0.24440  0.71540  0.35170  1.0000 0.1287717819
H   H125      1.0  0.71540  0.24440  0.64830  1.0000 0.1287717819
H   H126      1.0  0.28460  0.75560  0.14830  1.0000 0.1287717819
H   H127      1.0  0.74440  0.78460  0.89830  1.0000 0.1287717819
H   H128      1.0  0.25560  0.21540  0.39830  1.0000 0.1287717819
H   H129      1.0  0.76700  0.06480  0.07690  1.0000 0.2387523658
H   H130      1.0  0.23300  0.93520  0.57690  1.0000 0.2387523658
H   H131      1.0  0.43520  0.26700  0.82690  1.0000 0.2387523658
H   H132      1.0  0.56480  0.73300  0.32690  1.0000 0.2387523658
H   H133      1.0  0.73300  0.56480  0.67310  1.0000 0.2387523658
H   H134      1.0  0.26700  0.43520  0.17310  1.0000 0.2387523658
H   H135      1.0  0.06480  0.76700  0.92310  1.0000 0.2387523658
H   H136      1.0  0.93520  0.23300  0.42310  1.0000 0.2387523658
H   H137      1.0  0.73300  0.04510  0.13750  1.0000 0.2557646322
H   H138      1.0  0.26700  0.95490  0.63750  1.0000 0.2557646322
H   H139      1.0  0.45490  0.23300  0.88750  1.0000 0.2557646322
H   H140      1.0  0.54510  0.76700  0.38750  1.0000 0.2557646322
H   H141      1.0  0.76700  0.54510  0.61250  1.0000 0.2557646322
H   H142      1.0  0.23300  0.45490  0.11250  1.0000 0.2557646322
H   H143      1.0  0.04510  0.73300  0.86250  1.0000 0.2557646322
H   H144      1.0  0.95490  0.26700  0.36250  1.0000 0.2557646322
C   C1        1.0  0.69790  0.43150  0.05960  1.0000 0.0619596383
C   C2        1.0  0.30210  0.56850  0.55960  1.0000 0.0619596383
C   C3        1.0  0.06850  0.19790  0.80960  1.0000 0.0619596383
C   C4        1.0  0.93150  0.80210  0.30960  1.0000 0.0619596383
C   C5        1.0  0.80210  0.93150  0.69040  1.0000 0.0619596383
C   C6        1.0  0.19790  0.06850  0.19040  1.0000 0.0619596383
C   C7        1.0  0.43150  0.69790  0.94040  1.0000 0.0619596383
C   C8        1.0  0.56850  0.30210  0.44040  1.0000 0.0619596383
C   C9        1.0  0.76170  0.37430  0.06890  1.0000 -0.1981662282
C   C10       1.0  0.23830  0.62570  0.56890  1.0000 -0.1981662282
C   C11       1.0  0.12570  0.26170  0.81890  1.0000 -0.1981662282
C   C12       1.0  0.87430  0.73830  0.31890  1.0000 -0.1981662282
C   C13       1.0  0.73830  0.87430  0.68110  1.0000 -0.1981662282
C   C14       1.0  0.26170  0.12570  0.18110  1.0000 -0.1981662282
C   C15       1.0  0.37430  0.76170  0.93110  1.0000 -0.1981662282
C   C16       1.0  0.62570  0.23830  0.43110  1.0000 -0.1981662282
C   C17       1.0  0.81950  0.35950  0.02120  1.0000 0.1112559467
C   C18       1.0  0.18050  0.64050  0.52120  1.0000 0.1112559467
C   C19       1.0  0.14050  0.31950  0.77120  1.0000 0.1112559467
C   C20       1.0  0.85950  0.68050  0.27120  1.0000 0.1112559467
C   C21       1.0  0.68050  0.85950  0.72880  1.0000 0.1112559467
C   C22       1.0  0.31950  0.14050  0.22880  1.0000 0.1112559467
C   C23       1.0  0.35950  0.81950  0.97880  1.0000 0.1112559467
C   C24       1.0  0.64050  0.18050  0.47880  1.0000 0.1112559467
C   C25       1.0  0.80970  0.40640  0.96840  1.0000 -0.207956237
C   C26       1.0  0.19030  0.59360  0.46840  1.0000 -0.207956237
C   C27       1.0  0.09360  0.30970  0.71840  1.0000 -0.207956237
C   C28       1.0  0.90640  0.69030  0.21840  1.0000 -0.207956237
C   C29       1.0  0.69030  0.90640  0.78160  1.0000 -0.207956237
C   C30       1.0  0.30970  0.09360  0.28160  1.0000 -0.207956237
C   C31       1.0  0.40640  0.80970  0.03160  1.0000 -0.207956237
C   C32       1.0  0.59360  0.19030  0.53160  1.0000 -0.207956237
C   C33       1.0  0.74260  0.46200  0.96260  1.0000 0.0619596383
C   C34       1.0  0.25740  0.53800  0.46260  1.0000 0.0619596383
C   C35       1.0  0.03800  0.24260  0.71260  1.0000 0.0619596383
C   C36       1.0  0.96200  0.75740  0.21260  1.0000 0.0619596383
C   C37       1.0  0.75740  0.96200  0.78740  1.0000 0.0619596383
C   C38       1.0  0.24260  0.03800  0.28740  1.0000 0.0619596383
C   C39       1.0  0.46200  0.74260  0.03740  1.0000 0.0619596383
C   C40       1.0  0.53800  0.25740  0.53740  1.0000 0.0619596383
C   C41       1.0  0.88570  0.29290  0.02780  1.0000 0.0692292465
C   C42       1.0  0.11430  0.70710  0.52780  1.0000 0.0692292465
C   C43       1.0  0.20710  0.38570  0.77780  1.0000 0.0692292465
C   C44       1.0  0.79290  0.61430  0.27780  1.0000 0.0692292465
C   C45       1.0  0.61430  0.79290  0.72220  1.0000 0.0692292465
C   C46       1.0  0.38570  0.20710  0.22220  1.0000 0.0692292465
C   C47       1.0  0.29290  0.88570  0.97220  1.0000 0.0692292465
C   C48       1.0  0.70710  0.11430  0.47220  1.0000 0.0692292465
C   C49       1.0  0.95920  0.29370  0.99060  1.0000 -0.1693359551
C   C50       1.0  0.04080  0.70630  0.49060  1.0000 -0.1693359551
C   C51       1.0  0.20630  0.45920  0.74060  1.0000 -0.1693359551
C   C52       1.0  0.79370  0.54080  0.24060  1.0000 -0.1693359551
C   C53       1.0  0.54080  0.79370  0.75940  1.0000 -0.1693359551
C   C54       1.0  0.45920  0.20630  0.25940  1.0000 -0.1693359551
C   C55       1.0  0.29370  0.95920  0.00940  1.0000 -0.1693359551
C   C56       1.0  0.70630  0.04080  0.50940  1.0000 -0.1693359551
C   C57       1.0  0.01820  0.23030  0.99560  1.0000 -0.1106503059
C   C58       1.0  0.98180  0.76970  0.49560  1.0000 -0.1106503059
C   C59       1.0  0.26970  0.51820  0.74560  1.0000 -0.1106503059
C   C60       1.0  0.73030  0.48180  0.24560  1.0000 -0.1106503059
C   C61       1.0  0.48180  0.73030  0.75440  1.0000 -0.1106503059
C   C62       1.0  0.51820  0.26970  0.25440  1.0000 -0.1106503059
C   C63       1.0  0.23030  0.01820  0.00440  1.0000 -0.1106503059
C   C64       1.0  0.76970  0.98180  0.50440  1.0000 -0.1106503059
C   C65       1.0  0.00740  0.16570  0.03670  1.0000 -0.1631371056
C   C66       1.0  0.99260  0.83430  0.53670  1.0000 -0.1631371056
C   C67       1.0  0.33430  0.50740  0.78670  1.0000 -0.1631371056
C   C68       1.0  0.66570  0.49260  0.28670  1.0000 -0.1631371056
C   C69       1.0  0.49260  0.66570  0.71330  1.0000 -0.1631371056
C   C70       1.0  0.50740  0.33430  0.21330  1.0000 -0.1631371056
C   C71       1.0  0.16570  0.00740  0.96330  1.0000 -0.1631371056
C   C72       1.0  0.83430  0.99260  0.46330  1.0000 -0.1631371056
C   C73       1.0  0.93390  0.16250  0.07310  1.0000 0.0337330128
C   C74       1.0  0.06610  0.83750  0.57310  1.0000 0.0337330128
C   C75       1.0  0.33750  0.43390  0.82310  1.0000 0.0337330128
C   C76       1.0  0.66250  0.56610  0.32310  1.0000 0.0337330128
C   C77       1.0  0.56610  0.66250  0.67690  1.0000 0.0337330128
C   C78       1.0  0.43390  0.33750  0.17690  1.0000 0.0337330128
C   C79       1.0  0.16250  0.93390  0.92690  1.0000 0.0337330128
C   C80       1.0  0.83750  0.06610  0.42690  1.0000 0.0337330128
C   C81       1.0  0.87520  0.22470  0.06850  1.0000 -0.1981662282
C   C82       1.0  0.12480  0.77530  0.56850  1.0000 -0.1981662282
C   C83       1.0  0.27530  0.37520  0.81850  1.0000 -0.1981662282
C   C84       1.0  0.72470  0.62480  0.31850  1.0000 -0.1981662282
C   C85       1.0  0.62480  0.72470  0.68150  1.0000 -0.1981662282
C   C86       1.0  0.37520  0.27530  0.18150  1.0000 -0.1981662282
C   C87       1.0  0.22470  0.87520  0.93150  1.0000 -0.1981662282
C   C88       1.0  0.77530  0.12480  0.43150  1.0000 -0.1981662282
C   C89       1.0  0.92580  0.09270  0.11680  1.0000 0.1695000778
C   C90       1.0  0.07420  0.90730  0.61680  1.0000 0.1695000778
C   C91       1.0  0.40730  0.42580  0.86680  1.0000 0.1695000778
C   C92       1.0  0.59270  0.57420  0.36680  1.0000 0.1695000778
C   C93       1.0  0.57420  0.59270  0.63320  1.0000 0.1695000778
C   C94       1.0  0.42580  0.40730  0.13320  1.0000 0.1695000778
C   C95       1.0  0.09270  0.92580  0.88320  1.0000 0.1695000778
C   C96       1.0  0.90730  0.07420  0.38320  1.0000 0.1695000778
C   C97       1.0  0.87370  0.99780  0.17930  1.0000 0.1695000778
C   C98       1.0  0.12630  0.00220  0.67930  1.0000 0.1695000778
C   C99       1.0  0.50220  0.37370  0.92930  1.0000 0.1695000778
C   C100      1.0  0.49780  0.62630  0.42930  1.0000 0.1695000778
C   C101      1.0  0.62630  0.49780  0.57070  1.0000 0.1695000778
C   C102      1.0  0.37370  0.50220  0.07070  1.0000 0.1695000778
C   C103      1.0  0.99780  0.87370  0.82070  1.0000 0.1695000778
C   C104      1.0  0.00220  0.12630  0.32070  1.0000 0.1695000778
C   C105      1.0  0.81190  0.94180  0.20940  1.0000 0.0178336054
C   C106      1.0  0.18810  0.05820  0.70940  1.0000 0.0178336054
C   C107      1.0  0.55820  0.31190  0.95940  1.0000 0.0178336054
C   C108      1.0  0.44180  0.68810  0.45940  1.0000 0.0178336054
C   C109      1.0  0.68810  0.44180  0.54060  1.0000 0.0178336054
C   C110      1.0  0.31190  0.55820  0.04060  1.0000 0.0178336054
C   C111      1.0  0.94180  0.81190  0.79060  1.0000 0.0178336054
C   C112      1.0  0.05820  0.18810  0.29060  1.0000 0.0178336054
C   C113      1.0  0.78110  0.96000  0.26840  1.0000 -0.1693359551
C   C114      1.0  0.21890  0.04000  0.76840  1.0000 -0.1693359551
C   C115      1.0  0.54000  0.28110  0.01840  1.0000 -0.1693359551
C   C116      1.0  0.46000  0.71890  0.51840  1.0000 -0.1693359551
C   C117      1.0  0.71890  0.46000  0.48160  1.0000 -0.1693359551
C   C118      1.0  0.28110  0.54000  0.98160  1.0000 -0.1693359551
C   C119      1.0  0.96000  0.78110  0.73160  1.0000 -0.1693359551
C   C120      1.0  0.04000  0.21890  0.23160  1.0000 -0.1693359551
C   C121      1.0  0.72170  0.90470  0.29380  1.0000 -0.1018871537
C   C122      1.0  0.27830  0.09530  0.79380  1.0000 -0.1018871537
C   C123      1.0  0.59530  0.22170  0.04380  1.0000 -0.1018871537
C   C124      1.0  0.40470  0.77830  0.54380  1.0000 -0.1018871537
C   C125      1.0  0.77830  0.40470  0.45620  1.0000 -0.1018871537
C   C126      1.0  0.22170  0.59530  0.95620  1.0000 -0.1018871537
C   C127      1.0  0.90470  0.72170  0.70620  1.0000 -0.1018871537
C   C128      1.0  0.09530  0.27830  0.20620  1.0000 -0.1018871537
C   C129      1.0  0.69100  0.83610  0.26080  1.0000 -0.1781160285
C   C130      1.0  0.30900  0.16390  0.76080  1.0000 -0.1781160285
C   C131      1.0  0.66390  0.19100  0.01080  1.0000 -0.1781160285
C   C132      1.0  0.33610  0.80900  0.51080  1.0000 -0.1781160285
C   C133      1.0  0.80900  0.33610  0.48920  1.0000 -0.1781160285
C   C134      1.0  0.19100  0.66390  0.98920  1.0000 -0.1781160285
C   C135      1.0  0.83610  0.69100  0.73920  1.0000 -0.1781160285
C   C136      1.0  0.16390  0.30900  0.23920  1.0000 -0.1781160285
C   C137      1.0  0.72070  0.81910  0.20220  1.0000 0.0692292465
C   C138      1.0  0.27930  0.18090  0.70220  1.0000 0.0692292465
C   C139      1.0  0.68090  0.22070  0.95220  1.0000 0.0692292465
C   C140      1.0  0.31910  0.77930  0.45220  1.0000 0.0692292465
C   C141      1.0  0.77930  0.31910  0.54780  1.0000 0.0692292465
C   C142      1.0  0.22070  0.68090  0.04780  1.0000 0.0692292465
C   C143      1.0  0.81910  0.72070  0.79780  1.0000 0.0692292465
C   C144      1.0  0.18090  0.27930  0.29780  1.0000 0.0692292465
C   C145      1.0  0.78120  0.87260  0.17670  1.0000 -0.207956237
C   C146      1.0  0.21880  0.12740  0.67670  1.0000 -0.207956237
C   C147      1.0  0.62740  0.28120  0.92670  1.0000 -0.207956237
C   C148      1.0  0.37260  0.71880  0.42670  1.0000 -0.207956237
C   C149      1.0  0.71880  0.37260  0.57330  1.0000 -0.207956237
C   C150      1.0  0.28120  0.62740  0.07330  1.0000 -0.207956237
C   C151      1.0  0.87260  0.78120  0.82330  1.0000 -0.207956237
C   C152      1.0  0.12740  0.21880  0.32330  1.0000 -0.207956237
C   C153      1.0  0.69070  0.74570  0.16470  1.0000 0.1112559467
C   C154      1.0  0.30930  0.25430  0.66470  1.0000 0.1112559467
C   C155      1.0  0.75430  0.19070  0.91470  1.0000 0.1112559467
C   C156      1.0  0.24570  0.80930  0.41470  1.0000 0.1112559467
C   C157      1.0  0.80930  0.24570  0.58530  1.0000 0.1112559467
C   C158      1.0  0.19070  0.75430  0.08530  1.0000 0.1112559467
C   C159      1.0  0.74570  0.69070  0.83530  1.0000 0.1112559467
C   C160      1.0  0.25430  0.30930  0.33530  1.0000 0.1112559467
C   C161      1.0  0.61820  0.70100  0.17960  1.0000 -0.2227891938
C   C162      1.0  0.38180  0.29900  0.67960  1.0000 -0.2227891938
C   C163      1.0  0.79900  0.11820  0.92960  1.0000 -0.2227891938
C   C164      1.0  0.20100  0.88180  0.42960  1.0000 -0.2227891938
C   C165      1.0  0.88180  0.20100  0.57040  1.0000 -0.2227891938
C   C166      1.0  0.11820  0.79900  0.07040  1.0000 -0.2227891938
C   C167      1.0  0.70100  0.61820  0.82040  1.0000 -0.2227891938
C   C168      1.0  0.29900  0.38180  0.32040  1.0000 -0.2227891938
C   C169      1.0  0.58940  0.63940  0.13930  1.0000 0.0692292465
C   C170      1.0  0.41060  0.36060  0.63930  1.0000 0.0692292465
C   C171      1.0  0.86060  0.08940  0.88930  1.0000 0.0692292465
C   C172      1.0  0.13940  0.91060  0.38930  1.0000 0.0692292465
C   C173      1.0  0.91060  0.13940  0.61070  1.0000 0.0692292465
C   C174      1.0  0.08940  0.86060  0.11070  1.0000 0.0692292465
C   C175      1.0  0.63940  0.58940  0.86070  1.0000 0.0692292465
C   C176      1.0  0.36060  0.41060  0.36070  1.0000 0.0692292465
C   C177      1.0  0.70070  0.65710  0.07570  1.0000 0.0178336054
C   C178      1.0  0.29930  0.34290  0.57570  1.0000 0.0178336054
C   C179      1.0  0.84290  0.20070  0.82570  1.0000 0.0178336054
C   C180      1.0  0.15710  0.79930  0.32570  1.0000 0.0178336054
C   C181      1.0  0.79930  0.15710  0.67430  1.0000 0.0178336054
C   C182      1.0  0.20070  0.84290  0.17430  1.0000 0.0178336054
C   C183      1.0  0.65710  0.70070  0.92430  1.0000 0.0178336054
C   C184      1.0  0.34290  0.29930  0.42430  1.0000 0.0178336054
C   C185      1.0  0.73350  0.71950  0.11220  1.0000 -0.207956237
C   C186      1.0  0.26650  0.28050  0.61220  1.0000 -0.207956237
C   C187      1.0  0.78050  0.23350  0.86220  1.0000 -0.207956237
C   C188      1.0  0.21950  0.76650  0.36220  1.0000 -0.207956237
C   C189      1.0  0.76650  0.21950  0.63780  1.0000 -0.207956237
C   C190      1.0  0.23350  0.78050  0.13780  1.0000 -0.207956237
C   C191      1.0  0.71950  0.73350  0.88780  1.0000 -0.207956237
C   C192      1.0  0.28050  0.26650  0.38780  1.0000 -0.207956237
N   N1        1.0  0.68730  0.47570  0.00740  1.0000 -0.2370901679
N   N2        1.0  0.31270  0.52430  0.50740  1.0000 -0.2370901679
N   N3        1.0  0.02430  0.18730  0.75740  1.0000 -0.2370901679
N   N4        1.0  0.97570  0.81270  0.25740  1.0000 -0.2370901679
N   N5        1.0  0.81270  0.97570  0.74260  1.0000 -0.2370901679
N   N6        1.0  0.18730  0.02430  0.24260  1.0000 -0.2370901679
N   N7        1.0  0.47570  0.68730  0.99260  1.0000 -0.2370901679
N   N8        1.0  0.52430  0.31270  0.49260  1.0000 -0.2370901679
N   N9        1.0  0.98950  0.05550  0.14430  1.0000 -0.2723562767
N   N10       1.0  0.01050  0.94450  0.64430  1.0000 -0.2723562767
N   N11       1.0  0.44450  0.48950  0.89430  1.0000 -0.2723562767
N   N12       1.0  0.55550  0.51050  0.39430  1.0000 -0.2723562767
N   N13       1.0  0.51050  0.55550  0.60570  1.0000 -0.2723562767
N   N14       1.0  0.48950  0.44450  0.10570  1.0000 -0.2723562767
N   N15       1.0  0.05550  0.98950  0.85570  1.0000 -0.2723562767
N   N16       1.0  0.94450  0.01050  0.35570  1.0000 -0.2723562767
N   N17       1.0  0.95670  0.99520  0.18340  1.0000 -0.2295766848
N   N18       1.0  0.04330  0.00480  0.68340  1.0000 -0.2295766848
N   N19       1.0  0.50480  0.45670  0.93340  1.0000 -0.2295766848
N   N20       1.0  0.49520  0.54330  0.43340  1.0000 -0.2295766848
N   N21       1.0  0.54330  0.49520  0.56660  1.0000 -0.2295766848
N   N22       1.0  0.45670  0.50480  0.06660  1.0000 -0.2295766848
N   N23       1.0  0.99520  0.95670  0.81660  1.0000 -0.2295766848
N   N24       1.0  0.00480  0.04330  0.31660  1.0000 -0.2295766848
N   N25       1.0  0.85270  0.05630  0.13780  1.0000 0.0619596383
N   N26       1.0  0.14730  0.94370  0.63780  1.0000 0.0619596383
N   N27       1.0  0.44370  0.35270  0.88780  1.0000 0.0619596383
N   N28       1.0  0.55630  0.64730  0.38780  1.0000 0.0619596383
N   N29       1.0  0.64730  0.55630  0.61220  1.0000 0.0619596383
N   N30       1.0  0.35270  0.44370  0.11220  1.0000 0.0619596383
N   N31       1.0  0.05630  0.85270  0.86220  1.0000 0.0619596383
N   N32       1.0  0.94370  0.14730  0.36220  1.0000 0.0619596383
N   N33       1.0  0.77040  0.07620  0.11710  1.0000 -0.5140968983
N   N34       1.0  0.22960  0.92380  0.61710  1.0000 -0.5140968983
N   N35       1.0  0.42380  0.27040  0.86710  1.0000 -0.5140968983
N   N36       1.0  0.57620  0.72960  0.36710  1.0000 -0.5140968983
N   N37       1.0  0.72960  0.57620  0.63290  1.0000 -0.5140968983
N   N38       1.0  0.27040  0.42380  0.13290  1.0000 -0.5140968983
N   N39       1.0  0.07620  0.77040  0.88290  1.0000 -0.5140968983
N   N40       1.0  0.92380  0.22960  0.38290  1.0000 -0.5140968983
N   N41       1.0  0.62600  0.61920  0.08730  1.0000 -0.2295766848
N   N42       1.0  0.37400  0.38080  0.58730  1.0000 -0.2295766848
N   N43       1.0  0.88080  0.12600  0.83730  1.0000 -0.2295766848
N   N44       1.0  0.11920  0.87400  0.33730  1.0000 -0.2295766848
N   N45       1.0  0.87400  0.11920  0.66270  1.0000 -0.2295766848
N   N46       1.0  0.12600  0.88080  0.16270  1.0000 -0.2295766848
N   N47       1.0  0.61920  0.62600  0.91270  1.0000 -0.2295766848
N   N48       1.0  0.38080  0.37400  0.41270  1.0000 -0.2295766848
