# DDEC6 charges by PACMAN v1.1 (https://github.com/mtap-research/PACMAN-charge/)
data_XAJQAC_ASR_pacman
_symmetry_space_group_name_H-M   'P 1'
_cell_length_a   15.63230000
_cell_length_b   16.18540000
_cell_length_c   14.32530000
_cell_angle_alpha   90.00000000
_cell_angle_beta   103.23700000
_cell_angle_gamma   90.00000000
_symmetry_Int_Tables_number   1
_chemical_formula_structural   InH12C22O5
_chemical_formula_sum   'In4 H48 C88 O20'
_cell_volume   3528.21727625
_cell_formula_units_Z   4
loop_
 _symmetry_equiv_pos_site_id
 _symmetry_equiv_pos_as_xyz
  1  'x, y, z'
loop_
 _atom_site_type_symbol
 _atom_site_label
 _atom_site_symmetry_multiplicity
 _atom_site_fract_x
 _atom_site_fract_y
 _atom_site_fract_z
 _atom_site_occupancy
 _atom_site_charge
In  In1  1  0.50000000  0.00000000  0.50000000  1.0 1.5681307109
In  In2  1  0.50000000  0.00000000  0.00000000  1.0 1.5681307109
In  In3  1  0.50000000  0.00820000  0.75000000  1.0 1.4830662997
In  In4  1  0.50000000  0.99180000  0.25000000  1.0 1.4830662997
H  H1  1  0.69970000  0.50350000  0.65160000  1.0 0.1104943699
H  H2  1  0.91090000  0.71940000  0.71740000  1.0 0.1042708045
H  H3  1  0.91090000  0.28780000  0.71530000  1.0 0.1104943699
H  H4  1  0.67680000  0.80180000  0.82370000  1.0 0.1104943699
H  H5  1  0.72810000  0.65620000  0.82590000  1.0 0.1104943699
H  H6  1  0.80820000  0.70650000  0.57070000  1.0 0.1104943699
H  H7  1  0.71740000  0.83370000  0.55020000  1.0 0.1104943699
H  H8  1  0.67340000  0.20750000  0.82540000  1.0 0.1104943699
H  H9  1  0.73140000  0.35080000  0.82900000  1.0 0.1104943699
H  H10  1  0.80000000  0.30140000  0.56700000  1.0 0.1104943699
H  H11  1  0.70250000  0.17850000  0.54590000  1.0 0.1104943699
H  H12  1  0.38123000  0.99860000  0.11300000  1.0 0.3988222571
H  H13  1  0.30030000  0.50350000  0.84840000  1.0 0.1104943699
H  H14  1  0.08910000  0.71940000  0.78260000  1.0 0.1042708045
H  H15  1  0.08910000  0.28780000  0.78470000  1.0 0.1104943699
H  H16  1  0.32320000  0.80180000  0.67630000  1.0 0.1104943699
H  H17  1  0.27190000  0.65620000  0.67410000  1.0 0.1104943699
H  H18  1  0.19180000  0.70650000  0.92930000  1.0 0.1104943699
H  H19  1  0.28260000  0.83370000  0.94980000  1.0 0.1104943699
H  H20  1  0.32660000  0.20750000  0.67460000  1.0 0.1104943699
H  H21  1  0.26860000  0.35080000  0.67100000  1.0 0.1104943699
H  H22  1  0.20000000  0.30140000  0.93300000  1.0 0.1104943699
H  H23  1  0.29750000  0.17850000  0.95410000  1.0 0.1104943699
H  H24  1  0.61877000  0.99860000  0.38700000  1.0 0.3988222571
H  H25  1  0.30030000  0.49650000  0.34840000  1.0 0.1104943699
H  H26  1  0.08910000  0.28060000  0.28260000  1.0 0.1042708045
H  H27  1  0.08910000  0.71220000  0.28470000  1.0 0.1104943699
H  H28  1  0.32320000  0.19820000  0.17630000  1.0 0.1104943699
H  H29  1  0.27190000  0.34380000  0.17410000  1.0 0.1104943699
H  H30  1  0.19180000  0.29350000  0.42930000  1.0 0.1104943699
H  H31  1  0.28260000  0.16630000  0.44980000  1.0 0.1104943699
H  H32  1  0.32660000  0.79250000  0.17460000  1.0 0.1104943699
H  H33  1  0.26860000  0.64920000  0.17100000  1.0 0.1104943699
H  H34  1  0.20000000  0.69860000  0.43300000  1.0 0.1104943699
H  H35  1  0.29750000  0.82150000  0.45410000  1.0 0.1104943699
H  H36  1  0.61877000  0.00140000  0.88700000  1.0 0.3988222571
H  H37  1  0.69970000  0.49650000  0.15160000  1.0 0.1104943699
H  H38  1  0.91090000  0.28060000  0.21740000  1.0 0.1042708045
H  H39  1  0.91090000  0.71220000  0.21530000  1.0 0.1104943699
H  H40  1  0.67680000  0.19820000  0.32370000  1.0 0.1104943699
H  H41  1  0.72810000  0.34380000  0.32590000  1.0 0.1104943699
H  H42  1  0.80820000  0.29350000  0.07070000  1.0 0.1104943699
H  H43  1  0.71740000  0.16630000  0.05020000  1.0 0.1104943699
H  H44  1  0.67340000  0.79250000  0.32540000  1.0 0.1104943699
H  H45  1  0.73140000  0.64920000  0.32900000  1.0 0.1104943699
H  H46  1  0.80000000  0.69860000  0.06700000  1.0 0.1104943699
H  H47  1  0.70250000  0.82150000  0.04590000  1.0 0.1104943699
H  H48  1  0.38123000  0.00140000  0.61300000  1.0 0.3988222571
C  C1  1  0.61040000  0.88130000  0.65870000  1.0 0.6001805605
C  C2  1  0.61030000  0.12250000  0.66520000  1.0 0.6001805605
C  C3  1  0.68060000  0.81950000  0.68020000  1.0 -0.0329818606
C  C4  1  0.67590000  0.18890000  0.68170000  1.0 -0.0329818606
C  C5  1  0.69410000  0.77570000  0.76030000  1.0 -0.0698902972
C  C6  1  0.69130000  0.23270000  0.76200000  1.0 -0.0698902972
C  C7  1  0.73050000  0.69550000  0.76480000  1.0 -0.1500917333
C  C8  1  0.73080000  0.31180000  0.76670000  1.0 -0.1500917333
C  C9  1  0.76870000  0.66560000  0.69450000  1.0 0.0814798426
C  C10  1  0.76820000  0.34110000  0.69540000  1.0 0.0814798426
C  C11  1  0.76930000  0.72060000  0.62280000  1.0 -0.1500917333
C  C12  1  0.76330000  0.28760000  0.62120000  1.0 -0.1500917333
C  C13  1  0.72120000  0.79530000  0.61360000  1.0 -0.0698902972
C  C14  1  0.71220000  0.21440000  0.61190000  1.0 -0.0698902972
C  C15  1  0.81860000  0.58130000  0.70310000  1.0 0.0285934735
C  C16  1  0.81850000  0.42560000  0.70240000  1.0 0.0285934735
C  C17  1  0.91050000  0.58240000  0.72610000  1.0 0.0285934735
C  C18  1  0.91040000  0.42450000  0.72640000  1.0 0.0285934735
C  C19  1  0.95170000  0.66410000  0.73120000  1.0 -0.1500917333
C  C20  1  0.95160000  0.34300000  0.73060000  1.0 -0.1500917333
C  C21  1  0.77030000  0.50350000  0.68200000  1.0 -0.2561627088
C  C22  1  0.95550000  0.50340000  0.73430000  1.0 0.0076785868
C  C23  1  0.38960000  0.88130000  0.84130000  1.0 0.6001805605
C  C24  1  0.38970000  0.12250000  0.83480000  1.0 0.6001805605
C  C25  1  0.31940000  0.81950000  0.81980000  1.0 -0.0329818606
C  C26  1  0.32410000  0.18890000  0.81830000  1.0 -0.0329818606
C  C27  1  0.30590000  0.77570000  0.73970000  1.0 -0.0698902972
C  C28  1  0.30870000  0.23270000  0.73800000  1.0 -0.0698902972
C  C29  1  0.26950000  0.69550000  0.73520000  1.0 -0.1500917333
C  C30  1  0.26920000  0.31180000  0.73330000  1.0 -0.1500917333
C  C31  1  0.23130000  0.66560000  0.80550000  1.0 0.0814798426
C  C32  1  0.23180000  0.34110000  0.80460000  1.0 0.0814798426
C  C33  1  0.23070000  0.72060000  0.87720000  1.0 -0.1500917333
C  C34  1  0.23670000  0.28760000  0.87880000  1.0 -0.1500917333
C  C35  1  0.27880000  0.79530000  0.88640000  1.0 -0.0698902972
C  C36  1  0.28780000  0.21440000  0.88810000  1.0 -0.0698902972
C  C37  1  0.18140000  0.58130000  0.79690000  1.0 0.0285934735
C  C38  1  0.18150000  0.42560000  0.79760000  1.0 0.0285934735
C  C39  1  0.08950000  0.58240000  0.77390000  1.0 0.0285934735
C  C40  1  0.08960000  0.42450000  0.77360000  1.0 0.0285934735
C  C41  1  0.04830000  0.66410000  0.76880000  1.0 -0.1500917333
C  C42  1  0.04840000  0.34300000  0.76940000  1.0 -0.1500917333
C  C43  1  0.22970000  0.50350000  0.81800000  1.0 -0.2561627088
C  C44  1  0.04450000  0.50340000  0.76570000  1.0 0.0076785868
C  C45  1  0.38960000  0.11870000  0.34130000  1.0 0.6001805605
C  C46  1  0.38970000  0.87750000  0.33480000  1.0 0.6001805605
C  C47  1  0.31940000  0.18050000  0.31980000  1.0 -0.0329818606
C  C48  1  0.32410000  0.81110000  0.31830000  1.0 -0.0329818606
C  C49  1  0.30590000  0.22430000  0.23970000  1.0 -0.0698902972
C  C50  1  0.30870000  0.76730000  0.23800000  1.0 -0.0698902972
C  C51  1  0.26950000  0.30450000  0.23520000  1.0 -0.1500917333
C  C52  1  0.26920000  0.68820000  0.23330000  1.0 -0.1500917333
C  C53  1  0.23130000  0.33440000  0.30550000  1.0 0.0814798426
C  C54  1  0.23180000  0.65890000  0.30460000  1.0 0.0814798426
C  C55  1  0.23070000  0.27940000  0.37720000  1.0 -0.1500917333
C  C56  1  0.23670000  0.71240000  0.37880000  1.0 -0.1500917333
C  C57  1  0.27880000  0.20470000  0.38640000  1.0 -0.0698902972
C  C58  1  0.28780000  0.78560000  0.38810000  1.0 -0.0698902972
C  C59  1  0.18140000  0.41870000  0.29690000  1.0 0.0285934735
C  C60  1  0.18150000  0.57440000  0.29760000  1.0 0.0285934735
C  C61  1  0.08950000  0.41760000  0.27390000  1.0 0.0285934735
C  C62  1  0.08960000  0.57550000  0.27360000  1.0 0.0285934735
C  C63  1  0.04830000  0.33590000  0.26880000  1.0 -0.1500917333
C  C64  1  0.04840000  0.65700000  0.26940000  1.0 -0.1500917333
C  C65  1  0.22970000  0.49650000  0.31800000  1.0 -0.2561627088
C  C66  1  0.04450000  0.49660000  0.26570000  1.0 0.0076785868
C  C67  1  0.61040000  0.11870000  0.15870000  1.0 0.6001805605
C  C68  1  0.61030000  0.87750000  0.16520000  1.0 0.6001805605
C  C69  1  0.68060000  0.18050000  0.18020000  1.0 -0.0329818606
C  C70  1  0.67590000  0.81110000  0.18170000  1.0 -0.0329818606
C  C71  1  0.69410000  0.22430000  0.26030000  1.0 -0.0698902972
C  C72  1  0.69130000  0.76730000  0.26200000  1.0 -0.0698902972
C  C73  1  0.73050000  0.30450000  0.26480000  1.0 -0.1500917333
C  C74  1  0.73080000  0.68820000  0.26670000  1.0 -0.1500917333
C  C75  1  0.76870000  0.33440000  0.19450000  1.0 0.0814798426
C  C76  1  0.76820000  0.65890000  0.19540000  1.0 0.0814798426
C  C77  1  0.76930000  0.27940000  0.12280000  1.0 -0.1500917333
C  C78  1  0.76330000  0.71240000  0.12120000  1.0 -0.1500917333
C  C79  1  0.72120000  0.20470000  0.11360000  1.0 -0.0698902972
C  C80  1  0.71220000  0.78560000  0.11190000  1.0 -0.0698902972
C  C81  1  0.81860000  0.41870000  0.20310000  1.0 0.0285934735
C  C82  1  0.81850000  0.57440000  0.20240000  1.0 0.0285934735
C  C83  1  0.91050000  0.41760000  0.22610000  1.0 0.0285934735
C  C84  1  0.91040000  0.57550000  0.22640000  1.0 0.0285934735
C  C85  1  0.95170000  0.33590000  0.23120000  1.0 -0.1500917333
C  C86  1  0.95160000  0.65700000  0.23060000  1.0 -0.1500917333
C  C87  1  0.77030000  0.49650000  0.18200000  1.0 -0.2561627088
C  C88  1  0.95550000  0.49660000  0.23430000  1.0 0.0076785868
O  O1  1  0.55480000  0.99860000  0.38700000  1.0 -0.8678170053
O  O2  1  0.57870000  0.90040000  0.57440000  1.0 -0.5390412716
O  O3  1  0.58270000  0.10520000  0.73580000  1.0 -0.5228759108
O  O4  1  0.57370000  0.89950000  0.73160000  1.0 -0.588257393
O  O5  1  0.57810000  0.09870000  0.57770000  1.0 -0.5987789539
O  O6  1  0.44520000  0.99860000  0.11300000  1.0 -0.8678170053
O  O7  1  0.42130000  0.90040000  0.92560000  1.0 -0.5390412716
O  O8  1  0.41730000  0.10520000  0.76420000  1.0 -0.5228759108
O  O9  1  0.42630000  0.89950000  0.76840000  1.0 -0.588257393
O  O10  1  0.42190000  0.09870000  0.92230000  1.0 -0.5987789539
O  O11  1  0.44520000  0.00140000  0.61300000  1.0 -0.8678170053
O  O12  1  0.42130000  0.09960000  0.42560000  1.0 -0.5390412716
O  O13  1  0.41730000  0.89480000  0.26420000  1.0 -0.5228759108
O  O14  1  0.42630000  0.10050000  0.26840000  1.0 -0.588257393
O  O15  1  0.42190000  0.90130000  0.42230000  1.0 -0.5987789539
O  O16  1  0.55480000  0.00140000  0.88700000  1.0 -0.8678170053
O  O17  1  0.57870000  0.09960000  0.07440000  1.0 -0.5390412716
O  O18  1  0.58270000  0.89480000  0.23580000  1.0 -0.5228759108
O  O19  1  0.57370000  0.10050000  0.23160000  1.0 -0.588257393
O  O20  1  0.57810000  0.90130000  0.07770000  1.0 -0.5987789539
