# DDEC6 charges by PACMAN v1.1 (https://github.com/mtap-research/PACMAN-charge/)
data_2006[Mg][dia]3[ASR]5
_chemical_formula_sum              "Mg12 H24 C24 O48"
_cell_length_a       11.3762
_cell_length_b       9.9831
_cell_length_c       18.6631
_cell_angle_alpha    90
_cell_angle_beta     126.345
_cell_angle_gamma    90

_symmetry_space_group_name_H-M    "P 1"
_symmetry_Int_Tables_number       1

loop_
  _symmetry_equiv_pos_as_xyz
  'x, y, z'

loop_
  _atom_site_type_symbol
  _atom_site_label
  _atom_site_symmetry_multiplicity
  _atom_site_fract_x
  _atom_site_fract_y
  _atom_site_fract_z
  _atom_site_occupancy
  _atom_site_charge
Mg  Mg1       1.0  0.61945  0.42938  0.36448  1.0000 1.3084995295
Mg  Mg2       1.0  0.38055  0.92938  0.13552  1.0000 1.3084995295
Mg  Mg3       1.0  0.38055  0.57062  0.63552  1.0000 1.3084995295
Mg  Mg4       1.0  0.61945  0.07062  0.86448  1.0000 1.3084995295
Mg  Mg5       1.0  0.50000  0.50000  0.50000  1.0000 1.2983933831
Mg  Mg6       1.0  0.50000  0.00000  0.00000  1.0000 1.2983933831
Mg  Mg7       1.0  0.43822  0.62626  0.19824  1.0000 1.277423724
Mg  Mg8       1.0  0.56178  0.12626  0.30176  1.0000 1.277423724
Mg  Mg9       1.0  0.56178  0.37374  0.80176  1.0000 1.277423724
Mg  Mg10      1.0  0.43822  0.87374  0.69824  1.0000 1.277423724
Mg  Mg11      1.0  0.00000  0.50000  0.50000  1.0000 1.2983933831
Mg  Mg12      1.0  0.00000  0.00000  0.00000  1.0000 1.2983933831
H   H1        1.0  0.22210  0.56080  0.24550  1.0000 0.0723804336
H   H2        1.0  0.77790  0.06080  0.25450  1.0000 0.0723804336
H   H3        1.0  0.77790  0.43920  0.75450  1.0000 0.0723804336
H   H4        1.0  0.22210  0.93920  0.74550  1.0000 0.0723804336
H   H5        1.0  0.46640  0.13150  0.42620  1.0000 0.0723804336
H   H6        1.0  0.53360  0.63150  0.07380  1.0000 0.0723804336
H   H7        1.0  0.53360  0.86850  0.57380  1.0000 0.0723804336
H   H8        1.0  0.46640  0.36850  0.92620  1.0000 0.0723804336
H   H9        1.0  0.96850  0.21480  0.46760  1.0000 0.0781038156
H   H10       1.0  0.03150  0.71480  0.03240  1.0000 0.0781038156
H   H11       1.0  0.03150  0.78520  0.53240  1.0000 0.0781038156
H   H12       1.0  0.96850  0.28520  0.96760  1.0000 0.0781038156
H   H13       1.0  0.48900  0.28150  0.13200  1.0000 0.0852437164
H   H14       1.0  0.51100  0.78150  0.36800  1.0000 0.0852437164
H   H15       1.0  0.51100  0.71850  0.86800  1.0000 0.0852437164
H   H16       1.0  0.48900  0.21850  0.63200  1.0000 0.0852437164
H   H17       1.0  0.77550  0.63110  0.57990  1.0000 0.0723804336
H   H18       1.0  0.22450  0.13110  0.92010  1.0000 0.0723804336
H   H19       1.0  0.22450  0.36890  0.42010  1.0000 0.0723804336
H   H20       1.0  0.77550  0.86890  0.07990  1.0000 0.0723804336
H   H21       1.0  0.75700  0.72910  0.29410  1.0000 0.0781038156
H   H22       1.0  0.24300  0.22910  0.20590  1.0000 0.0781038156
H   H23       1.0  0.24300  0.27090  0.70590  1.0000 0.0781038156
H   H24       1.0  0.75700  0.77090  0.79410  1.0000 0.0781038156
C   C1        1.0  0.31679  0.53762  0.29644  1.0000 0.5214729602
C   C2        1.0  0.68321  0.03762  0.20356  1.0000 0.5214729602
C   C3        1.0  0.68321  0.46238  0.70356  1.0000 0.5214729602
C   C4        1.0  0.31679  0.96238  0.79644  1.0000 0.5214729602
C   C5        1.0  0.49395  0.22210  0.42830  1.0000 0.5214729602
C   C6        1.0  0.50605  0.72210  0.07170  1.0000 0.5214729602
C   C7        1.0  0.50605  0.77790  0.57170  1.0000 0.5214729602
C   C8        1.0  0.49395  0.27790  0.92830  1.0000 0.5214729602
C   C9        1.0  0.86712  0.23460  0.43163  1.0000 0.5322223648
C   C10       1.0  0.13288  0.73460  0.06837  1.0000 0.5322223648
C   C11       1.0  0.13288  0.76540  0.56837  1.0000 0.5322223648
C   C12       1.0  0.86712  0.26540  0.93163  1.0000 0.5322223648
C   C13       1.0  0.49895  0.34841  0.17149  1.0000 0.5322223648
C   C14       1.0  0.50105  0.84841  0.32851  1.0000 0.5322223648
C   C15       1.0  0.50105  0.65159  0.82851  1.0000 0.5322223648
C   C16       1.0  0.49895  0.15159  0.67149  1.0000 0.5322223648
C   C17       1.0  0.77731  0.58370  0.53637  1.0000 0.5322223648
C   C18       1.0  0.22269  0.08370  0.96363  1.0000 0.5322223648
C   C19       1.0  0.22269  0.41630  0.46363  1.0000 0.5322223648
C   C20       1.0  0.77731  0.91630  0.03637  1.0000 0.5322223648
C   C21       1.0  0.77064  0.65545  0.33054  1.0000 0.5214729602
C   C22       1.0  0.22936  0.15545  0.16946  1.0000 0.5214729602
C   C23       1.0  0.22936  0.34455  0.66946  1.0000 0.5214729602
C   C24       1.0  0.77064  0.84455  0.83054  1.0000 0.5214729602
O   O1        1.0  0.41620  0.52049  0.28517  1.0000 -0.6883244967
O   O2        1.0  0.58380  0.02049  0.21483  1.0000 -0.6883244967
O   O3        1.0  0.58380  0.47951  0.71483  1.0000 -0.6883244967
O   O4        1.0  0.41620  0.97951  0.78517  1.0000 -0.6883244967
O   O5        1.0  0.33305  0.52671  0.36755  1.0000 -0.5708946143
O   O6        1.0  0.66695  0.02671  0.13245  1.0000 -0.5708946143
O   O7        1.0  0.66695  0.47329  0.63245  1.0000 -0.5708946143
O   O8        1.0  0.33305  0.97329  0.86755  1.0000 -0.5708946143
O   O9        1.0  0.53308  0.25391  0.37884  1.0000 -0.6785267001
O   O10       1.0  0.46692  0.75391  0.12116  1.0000 -0.6785267001
O   O11       1.0  0.46692  0.74609  0.62116  1.0000 -0.6785267001
O   O12       1.0  0.53308  0.24609  0.87884  1.0000 -0.6785267001
O   O13       1.0  0.48863  0.29799  0.47830  1.0000 -0.5708946143
O   O14       1.0  0.51137  0.79799  0.02170  1.0000 -0.5708946143
O   O15       1.0  0.51137  0.70201  0.52170  1.0000 -0.5708946143
O   O16       1.0  0.48863  0.20201  0.97830  1.0000 -0.5708946143
O   O17       1.0  0.83090  0.35641  0.42995  1.0000 -0.6645599161
O   O18       1.0  0.16910  0.85641  0.07005  1.0000 -0.6645599161
O   O19       1.0  0.16910  0.64359  0.57005  1.0000 -0.6645599161
O   O20       1.0  0.83090  0.14359  0.92995  1.0000 -0.6645599161
O   O21       1.0  0.78220  0.13998  0.39063  1.0000 -0.5708946143
O   O22       1.0  0.21780  0.63998  0.10937  1.0000 -0.5708946143
O   O23       1.0  0.21780  0.86002  0.60937  1.0000 -0.5708946143
O   O24       1.0  0.78220  0.36002  0.89063  1.0000 -0.5708946143
O   O25       1.0  0.55934  0.31410  0.25193  1.0000 -0.673351035
O   O26       1.0  0.44066  0.81410  0.24807  1.0000 -0.673351035
O   O27       1.0  0.44066  0.68590  0.74807  1.0000 -0.673351035
O   O28       1.0  0.55934  0.18590  0.75193  1.0000 -0.673351035
O   O29       1.0  0.45193  0.46187  0.14028  1.0000 -0.5804547523
O   O30       1.0  0.54807  0.96187  0.35972  1.0000 -0.5804547523
O   O31       1.0  0.54807  0.53813  0.85972  1.0000 -0.5804547523
O   O32       1.0  0.45193  0.03813  0.64028  1.0000 -0.5804547523
O   O33       1.0  0.66147  0.51961  0.47720  1.0000 -0.6785267001
O   O34       1.0  0.33853  0.01961  0.02280  1.0000 -0.6785267001
O   O35       1.0  0.33853  0.48039  0.52280  1.0000 -0.6785267001
O   O36       1.0  0.66147  0.98039  0.97720  1.0000 -0.6785267001
O   O37       1.0  0.89120  0.58976  0.54223  1.0000 -0.585447446
O   O38       1.0  0.10880  0.08976  0.95777  1.0000 -0.5804547523
O   O39       1.0  0.10880  0.41024  0.45777  1.0000 -0.5804547523
O   O40       1.0  0.89120  0.91024  0.04223  1.0000 -0.585447446
O   O41       1.0  0.65620  0.59392  0.31000  1.0000 -0.6785267001
O   O42       1.0  0.34380  0.09392  0.19000  1.0000 -0.6785267001
O   O43       1.0  0.34380  0.40608  0.69000  1.0000 -0.6785267001
O   O44       1.0  0.65620  0.90608  0.81000  1.0000 -0.6785267001
O   O45       1.0  0.89746  0.62833  0.39330  1.0000 -0.5708946143
O   O46       1.0  0.10254  0.12833  0.10670  1.0000 -0.5644884859
O   O47       1.0  0.10254  0.37167  0.60670  1.0000 -0.5644884859
O   O48       1.0  0.89746  0.87167  0.89330  1.0000 -0.5644884859
