# DDEC6 charges by PACMAN v1.1 (https://github.com/mtap-research/PACMAN-charge/)
data_2013[Zn][rtl]3[ASR]3
_chemical_formula_sum              "Zn4 H32 C76 N8 O24"
_cell_length_a       5.6137
_cell_length_b       26.3769
_cell_length_c       17.1499
_cell_angle_alpha    90
_cell_angle_beta     96.82
_cell_angle_gamma    90

_symmetry_space_group_name_H-M    "P 1"
_symmetry_Int_Tables_number       1

loop_
  _symmetry_equiv_pos_as_xyz
  'x, y, z'

loop_
  _atom_site_type_symbol
  _atom_site_label
  _atom_site_symmetry_multiplicity
  _atom_site_fract_x
  _atom_site_fract_y
  _atom_site_fract_z
  _atom_site_occupancy
  _atom_site_charge
Zn  Zn1       1.0  0.10949  0.52830  0.57242  1.0000 0.8455655506
Zn  Zn2       1.0  0.89051  0.02830  0.92758  1.0000 0.8455655506
Zn  Zn3       1.0  0.89051  0.47170  0.42758  1.0000 0.8455655506
Zn  Zn4       1.0  0.10949  0.97170  0.07242  1.0000 0.8455655506
H   H1        1.0  0.47170  0.10010  0.89690  1.0000 0.1195974802
H   H2        1.0  0.52830  0.60010  0.60310  1.0000 0.1195974802
H   H3        1.0  0.52830  0.89990  0.10310  1.0000 0.1195974802
H   H4        1.0  0.47170  0.39990  0.39690  1.0000 0.1195974802
H   H5        1.0  0.39630  0.17720  0.83220  1.0000 0.1492971709
H   H6        1.0  0.60370  0.67720  0.66780  1.0000 0.1492971709
H   H7        1.0  0.60370  0.82280  0.16780  1.0000 0.1492971709
H   H8        1.0  0.39630  0.32280  0.33220  1.0000 0.1492971709
H   H9        1.0  0.98670  0.15410  0.72230  1.0000 0.1492971709
H   H10       1.0  0.01330  0.65410  0.77770  1.0000 0.1492971709
H   H11       1.0  0.01330  0.84590  0.27770  1.0000 0.1492971709
H   H12       1.0  0.98670  0.34590  0.22230  1.0000 0.1492971709
H   H13       1.0  0.04750  0.07860  0.79080  1.0000 0.1195974802
H   H14       1.0  0.95250  0.57860  0.70920  1.0000 0.1195974802
H   H15       1.0  0.95250  0.92140  0.20920  1.0000 0.1195974802
H   H16       1.0  0.04750  0.42140  0.29080  1.0000 0.1195974802
H   H17       1.0  0.12300  0.26250  0.57430  1.0000 0.1274113623
H   H18       1.0  0.87700  0.76250  0.92570  1.0000 0.1274113623
H   H19       1.0  0.87700  0.73750  0.42570  1.0000 0.1274113623
H   H20       1.0  0.12300  0.23750  0.07430  1.0000 0.1274113623
H   H21       1.0  0.06870  0.34230  0.51400  1.0000 0.1274113623
H   H22       1.0  0.93130  0.84230  0.98600  1.0000 0.1274113623
H   H23       1.0  0.93130  0.65770  0.48600  1.0000 0.1274113623
H   H24       1.0  0.06870  0.15770  0.01400  1.0000 0.1274113623
H   H25       1.0  0.05090  0.42060  0.72050  1.0000 0.1274113623
H   H26       1.0  0.94910  0.92060  0.77950  1.0000 0.1274113623
H   H27       1.0  0.94910  0.57940  0.27950  1.0000 0.1274113623
H   H28       1.0  0.05090  0.07940  0.22050  1.0000 0.1274113623
H   H29       1.0  0.08790  0.34190  0.78310  1.0000 0.1274113623
H   H30       1.0  0.91210  0.84190  0.71690  1.0000 0.1274113623
H   H31       1.0  0.91210  0.65810  0.21690  1.0000 0.1274113623
H   H32       1.0  0.08790  0.15810  0.28310  1.0000 0.1274113623
C   C1        1.0  0.57870  0.11172  0.86190  1.0000 0.0998553862
C   C2        1.0  0.42130  0.61172  0.63810  1.0000 0.0998553862
C   C3        1.0  0.42130  0.88828  0.13810  1.0000 0.0998553862
C   C4        1.0  0.57870  0.38828  0.36190  1.0000 0.0998553862
C   C5        1.0  0.53270  0.15761  0.82350  1.0000 -0.2076885173
C   C6        1.0  0.46730  0.65761  0.67650  1.0000 -0.2076885173
C   C7        1.0  0.46730  0.84239  0.17650  1.0000 -0.2076885173
C   C8        1.0  0.53270  0.34239  0.32350  1.0000 -0.2076885173
C   C9        1.0  0.68860  0.17432  0.77260  1.0000 0.2313154271
C   C10       1.0  0.31140  0.67432  0.72740  1.0000 0.2313154271
C   C11       1.0  0.31140  0.82568  0.22740  1.0000 0.2313154271
C   C12       1.0  0.68860  0.32568  0.27260  1.0000 0.2313154271
C   C13       1.0  0.88100  0.14415  0.75880  1.0000 -0.1966163883
C   C14       1.0  0.11900  0.64415  0.74120  1.0000 -0.1966163883
C   C15       1.0  0.11900  0.85585  0.24120  1.0000 -0.1966163883
C   C16       1.0  0.88100  0.35585  0.25880  1.0000 -0.1966163883
C   C17       1.0  0.91470  0.09932  0.79950  1.0000 0.0998553862
C   C18       1.0  0.08530  0.59932  0.70050  1.0000 0.0998553862
C   C19       1.0  0.08530  0.90068  0.20050  1.0000 0.0998553862
C   C20       1.0  0.91470  0.40068  0.29950  1.0000 0.0998553862
C   C21       1.0  0.45220  0.23031  0.68110  1.0000 0.4509417405
C   C22       1.0  0.54780  0.73031  0.81890  1.0000 0.4509417405
C   C23       1.0  0.54780  0.76969  0.31890  1.0000 0.4509417405
C   C24       1.0  0.45220  0.26969  0.18110  1.0000 0.4509417405
C   C25       1.0  0.42620  0.28075  0.64420  1.0000 -0.0784565101
C   C26       1.0  0.57380  0.78075  0.85580  1.0000 -0.0784565101
C   C27       1.0  0.57380  0.71925  0.35580  1.0000 -0.0784565101
C   C28       1.0  0.42620  0.21925  0.14420  1.0000 -0.0784565101
C   C29       1.0  0.59580  0.31919  0.66440  1.0000 0.0405972331
C   C30       1.0  0.40420  0.81919  0.83560  1.0000 0.0405972331
C   C31       1.0  0.40420  0.68081  0.33560  1.0000 0.0405972331
C   C32       1.0  0.59580  0.18081  0.16440  1.0000 0.0405972331
C   C33       1.0  0.79540  0.30982  0.72110  1.0000 -0.0873954216
C   C34       1.0  0.20460  0.80982  0.77890  1.0000 -0.0873954216
C   C35       1.0  0.20460  0.69018  0.27890  1.0000 -0.0873954216
C   C36       1.0  0.79540  0.19018  0.22110  1.0000 -0.0873954216
C   C37       1.0  0.83250  0.25939  0.75730  1.0000 0.4444274535
C   C38       1.0  0.16750  0.75939  0.74270  1.0000 0.4509417405
C   C39       1.0  0.16750  0.74061  0.24270  1.0000 0.4444274535
C   C40       1.0  0.83250  0.24061  0.25730  1.0000 0.4444274535
C   C41       1.0  0.23440  0.28902  0.58850  1.0000 -0.0784565101
C   C42       1.0  0.76560  0.78902  0.91150  1.0000 -0.0784565101
C   C43       1.0  0.76560  0.71098  0.41150  1.0000 -0.0784565101
C   C44       1.0  0.23440  0.21098  0.08850  1.0000 -0.0784565101
C   C45       1.0  0.20230  0.33679  0.55250  1.0000 -0.1135540115
C   C46       1.0  0.79770  0.83679  0.94750  1.0000 -0.1135540115
C   C47       1.0  0.79770  0.66321  0.44750  1.0000 -0.1135540115
C   C48       1.0  0.20230  0.16321  0.05250  1.0000 -0.1135540115
C   C49       1.0  0.36240  0.37584  0.57220  1.0000 -0.0454315371
C   C50       1.0  0.63760  0.87584  0.92780  1.0000 -0.0454315371
C   C51       1.0  0.63760  0.62416  0.42780  1.0000 -0.0454315371
C   C52       1.0  0.36240  0.12416  0.07220  1.0000 -0.0454315371
C   C53       1.0  0.56840  0.36783  0.62710  1.0000 0.0405972331
C   C54       1.0  0.43160  0.86783  0.87290  1.0000 0.0405972331
C   C55       1.0  0.43160  0.63217  0.37290  1.0000 0.0405972331
C   C56       1.0  0.56840  0.13217  0.12710  1.0000 0.0405972331
C   C57       1.0  0.75160  0.40461  0.64730  1.0000 -0.0367253641
C   C58       1.0  0.24840  0.90461  0.85270  1.0000 -0.0367253641
C   C59       1.0  0.24840  0.59539  0.35270  1.0000 -0.0367253641
C   C60       1.0  0.75160  0.09539  0.14730  1.0000 -0.0367253641
C   C61       1.0  0.93660  0.39481  0.70550  1.0000 -0.1135540115
C   C62       1.0  0.06340  0.89481  0.79450  1.0000 -0.1135540115
C   C63       1.0  0.06340  0.60519  0.29450  1.0000 -0.1135540115
C   C64       1.0  0.93660  0.10519  0.20550  1.0000 -0.1135540115
C   C65       1.0  0.95960  0.34783  0.74280  1.0000 -0.0784565101
C   C66       1.0  0.04040  0.84783  0.75720  1.0000 -0.0746264974
C   C67       1.0  0.04040  0.65217  0.25720  1.0000 -0.0746264974
C   C68       1.0  0.95960  0.15217  0.24280  1.0000 -0.0784565101
C   C69       1.0  0.28180  0.42707  0.54080  1.0000 0.5979025295
C   C70       1.0  0.71820  0.92707  0.95920  1.0000 0.5979025295
C   C71       1.0  0.71820  0.57293  0.45920  1.0000 0.5979025295
C   C72       1.0  0.28180  0.07293  0.04080  1.0000 0.5979025295
C   C73       1.0  0.78440  0.45094  0.59840  1.0000 0.5979025295
C   C74       1.0  0.21560  0.95094  0.90160  1.0000 0.5979025295
C   C75       1.0  0.21560  0.54906  0.40160  1.0000 0.5979025295
C   C76       1.0  0.78440  0.04906  0.09840  1.0000 0.5979025295
N   N1        1.0  0.76900  0.08346  0.85090  1.0000 -0.2171888979
N   N2        1.0  0.23100  0.58346  0.64910  1.0000 -0.2171888979
N   N3        1.0  0.23100  0.91654  0.14910  1.0000 -0.2171888979
N   N4        1.0  0.76900  0.41654  0.35090  1.0000 -0.2171888979
N   N5        1.0  0.65680  0.22312  0.73590  1.0000 -0.2285590241
N   N6        1.0  0.34320  0.72312  0.76410  1.0000 -0.2285590241
N   N7        1.0  0.34320  0.77688  0.26410  1.0000 -0.2285590241
N   N8        1.0  0.65680  0.27688  0.23590  1.0000 -0.2285590241
O   O1        1.0  0.30210  0.46379  0.58903  1.0000 -0.5223884056
O   O2        1.0  0.69790  0.96379  0.91097  1.0000 -0.5223884056
O   O3        1.0  0.69790  0.53621  0.41097  1.0000 -0.5223884056
O   O4        1.0  0.30210  0.03621  0.08903  1.0000 -0.5223884056
O   O5        1.0  0.18160  0.42854  0.47165  1.0000 -0.5533571908
O   O6        1.0  0.81840  0.92854  0.02835  1.0000 -0.5533571908
O   O7        1.0  0.81840  0.57146  0.52835  1.0000 -0.5533571908
O   O8        1.0  0.18160  0.07146  0.97165  1.0000 -0.5533571908
O   O9        1.0  0.74860  0.44509  0.52545  1.0000 -0.5533571908
O   O10       1.0  0.25140  0.94509  0.97455  1.0000 -0.5533571908
O   O11       1.0  0.25140  0.55491  0.47455  1.0000 -0.5533571908
O   O12       1.0  0.74860  0.05491  0.02545  1.0000 -0.5533571908
O   O13       1.0  0.86870  0.48978  0.63347  1.0000 -0.5287303398
O   O14       1.0  0.13130  0.98978  0.86653  1.0000 -0.5287303398
O   O15       1.0  0.13130  0.51022  0.36653  1.0000 -0.5287303398
O   O16       1.0  0.86870  0.01022  0.13347  1.0000 -0.5287303398
O   O17       1.0  0.31120  0.19617  0.66650  1.0000 -0.424234874
O   O18       1.0  0.68880  0.69617  0.83350  1.0000 -0.4285002817
O   O19       1.0  0.68880  0.80383  0.33350  1.0000 -0.424234874
O   O20       1.0  0.31120  0.30383  0.16650  1.0000 -0.4285002817
O   O21       1.0  0.00310  0.24899  0.80450  1.0000 -0.4353737602
O   O22       1.0  0.99690  0.74899  0.69550  1.0000 -0.4353737602
O   O23       1.0  0.99690  0.75101  0.19550  1.0000 -0.4353737602
O   O24       1.0  0.00310  0.25101  0.30450  1.0000 -0.4285002817
