# DDEC6 charges by PACMAN v1.1 (https://github.com/mtap-research/PACMAN-charge/)
data_2013[Zn][rtl]3[ASR]5
_chemical_formula_sum              "Zn4 H32 C76 N8 O24"
_cell_length_a       5.6364
_cell_length_b       25.301
_cell_length_c       18.8863
_cell_angle_alpha    90
_cell_angle_beta     95.47
_cell_angle_gamma    90

_symmetry_space_group_name_H-M    "P 1"
_symmetry_Int_Tables_number       1

loop_
  _symmetry_equiv_pos_as_xyz
  'x, y, z'

loop_
  _atom_site_type_symbol
  _atom_site_label
  _atom_site_symmetry_multiplicity
  _atom_site_fract_x
  _atom_site_fract_y
  _atom_site_fract_z
  _atom_site_occupancy
  _atom_site_charge
Zn  Zn1       1.0  0.10300  0.53332  0.56025  1.0000 0.8403086939
Zn  Zn2       1.0  0.89700  0.03332  0.93975  1.0000 0.8403086939
Zn  Zn3       1.0  0.89700  0.46668  0.43975  1.0000 0.8403086939
Zn  Zn4       1.0  0.10300  0.96668  0.06025  1.0000 0.8403086939
H   H1        1.0  0.47530  0.10740  0.91060  1.0000 0.1214725251
H   H2        1.0  0.52470  0.60740  0.58940  1.0000 0.1214725251
H   H3        1.0  0.52470  0.89260  0.08940  1.0000 0.1214725251
H   H4        1.0  0.47530  0.39260  0.41060  1.0000 0.1214725251
H   H5        1.0  0.39080  0.18420  0.84530  1.0000 0.1466844414
H   H6        1.0  0.60920  0.68420  0.65470  1.0000 0.1466844414
H   H7        1.0  0.60920  0.81580  0.15470  1.0000 0.1466844414
H   H8        1.0  0.39080  0.31580  0.34530  1.0000 0.1466844414
H   H9        1.0  0.98700  0.15830  0.74540  1.0000 0.1466844414
H   H10       1.0  0.01300  0.65830  0.75460  1.0000 0.1466844414
H   H11       1.0  0.01300  0.84170  0.25460  1.0000 0.1466844414
H   H12       1.0  0.98700  0.34170  0.24540  1.0000 0.1466844414
H   H13       1.0  0.05840  0.08430  0.81550  1.0000 0.1214725251
H   H14       1.0  0.94160  0.58430  0.68450  1.0000 0.1214725251
H   H15       1.0  0.94160  0.91570  0.18450  1.0000 0.1214725251
H   H16       1.0  0.05840  0.41570  0.31550  1.0000 0.1214725251
H   H17       1.0  0.12700  0.25690  0.60080  1.0000 0.1275253889
H   H18       1.0  0.87300  0.75690  0.89920  1.0000 0.1275253889
H   H19       1.0  0.87300  0.74310  0.39920  1.0000 0.1275253889
H   H20       1.0  0.12700  0.24310  0.10080  1.0000 0.1275253889
H   H21       1.0  0.07280  0.33480  0.53440  1.0000 0.1275253889
H   H22       1.0  0.92720  0.83480  0.96560  1.0000 0.1275253889
H   H23       1.0  0.92720  0.66520  0.46560  1.0000 0.1275253889
H   H24       1.0  0.07280  0.16520  0.03440  1.0000 0.1275253889
H   H25       1.0  0.02950  0.43250  0.70740  1.0000 0.1275253889
H   H26       1.0  0.97050  0.93250  0.79260  1.0000 0.1275253889
H   H27       1.0  0.97050  0.56750  0.29260  1.0000 0.1275253889
H   H28       1.0  0.02950  0.06750  0.20740  1.0000 0.1275253889
H   H29       1.0  0.06710  0.35580  0.77610  1.0000 0.1275253889
H   H30       1.0  0.93290  0.85580  0.72390  1.0000 0.1275253889
H   H31       1.0  0.93290  0.64420  0.22390  1.0000 0.1275253889
H   H32       1.0  0.06710  0.14420  0.27610  1.0000 0.1275253889
C   C1        1.0  0.58130  0.11861  0.87740  1.0000 0.0987510837
C   C2        1.0  0.41870  0.61861  0.62260  1.0000 0.0987510837
C   C3        1.0  0.41870  0.88139  0.12260  1.0000 0.0987510837
C   C4        1.0  0.58130  0.38139  0.37740  1.0000 0.0987510837
C   C5        1.0  0.52990  0.16413  0.83900  1.0000 -0.1998661033
C   C6        1.0  0.47010  0.66413  0.66100  1.0000 -0.1998661033
C   C7        1.0  0.47010  0.83587  0.16100  1.0000 -0.1998661033
C   C8        1.0  0.52990  0.33587  0.33900  1.0000 -0.1998661033
C   C9        1.0  0.68730  0.17976  0.79110  1.0000 0.2327507564
C   C10       1.0  0.31270  0.67976  0.70890  1.0000 0.2327507564
C   C11       1.0  0.31270  0.82024  0.20890  1.0000 0.2327507564
C   C12       1.0  0.68730  0.32024  0.29110  1.0000 0.2327507564
C   C13       1.0  0.88300  0.14909  0.78020  1.0000 -0.1998661033
C   C14       1.0  0.11700  0.64909  0.71980  1.0000 -0.1998661033
C   C15       1.0  0.11700  0.85091  0.21980  1.0000 -0.1998661033
C   C16       1.0  0.88300  0.35091  0.28020  1.0000 -0.1998661033
C   C17       1.0  0.92120  0.10510  0.82130  1.0000 0.0987510837
C   C18       1.0  0.07880  0.60510  0.67870  1.0000 0.0987510837
C   C19       1.0  0.07880  0.89490  0.17870  1.0000 0.0987510837
C   C20       1.0  0.92120  0.39490  0.32130  1.0000 0.0987510837
C   C21       1.0  0.45090  0.23209  0.70220  1.0000 0.4518585184
C   C22       1.0  0.54910  0.73209  0.79780  1.0000 0.4518585184
C   C23       1.0  0.54910  0.76791  0.29780  1.0000 0.4518585184
C   C24       1.0  0.45090  0.26791  0.20220  1.0000 0.4518585184
C   C25       1.0  0.42390  0.28170  0.66110  1.0000 -0.0796607063
C   C26       1.0  0.57610  0.78170  0.83890  1.0000 -0.0796607063
C   C27       1.0  0.57610  0.71830  0.33890  1.0000 -0.0796607063
C   C28       1.0  0.42390  0.21830  0.16110  1.0000 -0.0725199319
C   C29       1.0  0.58870  0.32322  0.67340  1.0000 0.0376516964
C   C30       1.0  0.41130  0.82322  0.82660  1.0000 0.0376516964
C   C31       1.0  0.41130  0.67678  0.32660  1.0000 0.0376516964
C   C32       1.0  0.58870  0.17678  0.17340  1.0000 0.0376516964
C   C33       1.0  0.78470  0.31817  0.72680  1.0000 -0.0796607063
C   C34       1.0  0.21530  0.81817  0.77320  1.0000 -0.0796607063
C   C35       1.0  0.21530  0.68183  0.27320  1.0000 -0.0796607063
C   C36       1.0  0.78470  0.18183  0.22680  1.0000 -0.0796607063
C   C37       1.0  0.82060  0.26881  0.76720  1.0000 0.4430143216
C   C38       1.0  0.17940  0.76881  0.73280  1.0000 0.4430143216
C   C39       1.0  0.17940  0.73119  0.23280  1.0000 0.4430143216
C   C40       1.0  0.82060  0.23119  0.26720  1.0000 0.4430143216
C   C41       1.0  0.23470  0.28559  0.60950  1.0000 -0.0796607063
C   C42       1.0  0.76530  0.78559  0.89050  1.0000 -0.0796607063
C   C43       1.0  0.76530  0.71441  0.39050  1.0000 -0.0796607063
C   C44       1.0  0.23470  0.21441  0.10950  1.0000 -0.0796607063
C   C45       1.0  0.20340  0.33210  0.57000  1.0000 -0.1168821243
C   C46       1.0  0.79660  0.83210  0.93000  1.0000 -0.1168821243
C   C47       1.0  0.79660  0.66790  0.43000  1.0000 -0.1168821243
C   C48       1.0  0.20340  0.16790  0.07000  1.0000 -0.1168821243
C   C49       1.0  0.35730  0.37428  0.58130  1.0000 -0.0394618756
C   C50       1.0  0.64270  0.87428  0.91870  1.0000 -0.0394618756
C   C51       1.0  0.64270  0.62572  0.41870  1.0000 -0.0394618756
C   C52       1.0  0.35730  0.12572  0.08130  1.0000 -0.0394618756
C   C53       1.0  0.56120  0.37026  0.63220  1.0000 0.0376516964
C   C54       1.0  0.43880  0.87026  0.86780  1.0000 0.0376516964
C   C55       1.0  0.43880  0.62974  0.36780  1.0000 0.0376516964
C   C56       1.0  0.56120  0.12974  0.13220  1.0000 0.0376516964
C   C57       1.0  0.73850  0.40998  0.64400  1.0000 -0.0316375367
C   C58       1.0  0.26150  0.90998  0.85600  1.0000 -0.0316375367
C   C59       1.0  0.26150  0.59002  0.35600  1.0000 -0.0316375367
C   C60       1.0  0.73850  0.09002  0.14400  1.0000 -0.0316375367
C   C61       1.0  0.91850  0.40451  0.69800  1.0000 -0.1168821243
C   C62       1.0  0.08150  0.90451  0.80200  1.0000 -0.1168821243
C   C63       1.0  0.08150  0.59549  0.30200  1.0000 -0.1168821243
C   C64       1.0  0.91850  0.09549  0.19800  1.0000 -0.1168821243
C   C65       1.0  0.94110  0.35871  0.73910  1.0000 -0.0725199319
C   C66       1.0  0.05890  0.85871  0.76090  1.0000 -0.0725199319
C   C67       1.0  0.05890  0.64129  0.26090  1.0000 -0.0725199319
C   C68       1.0  0.94110  0.14129  0.23910  1.0000 -0.0725199319
C   C69       1.0  0.27520  0.42483  0.54480  1.0000 0.5988001578
C   C70       1.0  0.72480  0.92483  0.95520  1.0000 0.5988001578
C   C71       1.0  0.72480  0.57517  0.45520  1.0000 0.5988001578
C   C72       1.0  0.27520  0.07517  0.04480  1.0000 0.5988001578
C   C73       1.0  0.77440  0.45461  0.59290  1.0000 0.5988001578
C   C74       1.0  0.22560  0.95461  0.90710  1.0000 0.5988001578
C   C75       1.0  0.22560  0.54539  0.40710  1.0000 0.5988001578
C   C76       1.0  0.77440  0.04539  0.09290  1.0000 0.5988001578
N   N1        1.0  0.77590  0.08952  0.86945  1.0000 -0.2123182661
N   N2        1.0  0.22410  0.58952  0.63055  1.0000 -0.2123182661
N   N3        1.0  0.22410  0.91048  0.13055  1.0000 -0.2123182661
N   N4        1.0  0.77590  0.41048  0.36945  1.0000 -0.2123182661
N   N5        1.0  0.65120  0.22903  0.75290  1.0000 -0.2326340734
N   N6        1.0  0.34880  0.72903  0.74710  1.0000 -0.2326340734
N   N7        1.0  0.34880  0.77097  0.24710  1.0000 -0.2326340734
N   N8        1.0  0.65120  0.27097  0.25290  1.0000 -0.2326340734
O   O1        1.0  0.29020  0.46635  0.58200  1.0000 -0.5271045438
O   O2        1.0  0.70980  0.96635  0.91800  1.0000 -0.5271045438
O   O3        1.0  0.70980  0.53365  0.41800  1.0000 -0.5271045438
O   O4        1.0  0.29020  0.03365  0.08200  1.0000 -0.5271045438
O   O5        1.0  0.17860  0.42084  0.48232  1.0000 -0.5514649473
O   O6        1.0  0.82140  0.92084  0.01768  1.0000 -0.5514649473
O   O7        1.0  0.82140  0.57916  0.51768  1.0000 -0.5514649473
O   O8        1.0  0.17860  0.07916  0.98232  1.0000 -0.5514649473
O   O9        1.0  0.74120  0.44293  0.52770  1.0000 -0.5514649473
O   O10       1.0  0.25880  0.94293  0.97230  1.0000 -0.5514649473
O   O11       1.0  0.25880  0.55707  0.47230  1.0000 -0.5514649473
O   O12       1.0  0.74120  0.05707  0.02770  1.0000 -0.5514649473
O   O13       1.0  0.85490  0.49715  0.61830  1.0000 -0.5271045438
O   O14       1.0  0.14510  0.99715  0.88170  1.0000 -0.5271045438
O   O15       1.0  0.14510  0.50285  0.38170  1.0000 -0.5271045438
O   O16       1.0  0.85490  0.00285  0.11830  1.0000 -0.5271045438
O   O17       1.0  0.31540  0.19483  0.69422  1.0000 -0.4320104069
O   O18       1.0  0.68460  0.69483  0.80578  1.0000 -0.4320104069
O   O19       1.0  0.68460  0.80517  0.30578  1.0000 -0.4320104069
O   O20       1.0  0.31540  0.30517  0.19422  1.0000 -0.4320104069
O   O21       1.0  0.98740  0.26188  0.81190  1.0000 -0.4363392017
O   O22       1.0  0.01260  0.76188  0.68810  1.0000 -0.4363392017
O   O23       1.0  0.01260  0.73812  0.18810  1.0000 -0.4363392017
O   O24       1.0  0.98740  0.23812  0.31190  1.0000 -0.4363392017
