# DDEC6 charges by PACMAN v1.1 (https://github.com/mtap-research/PACMAN-charge/)
data_2013[Zn][sit]3[ASR]1
_chemical_formula_sum              "Zn4 H40 C68 N12 O16"
_cell_length_a       14.9546
_cell_length_b       14.9546
_cell_length_c       11.721
_cell_angle_alpha    72.9398
_cell_angle_beta     107.06
_cell_angle_gamma    83.5515

_symmetry_space_group_name_H-M    "P 1"
_symmetry_Int_Tables_number       1

loop_
  _symmetry_equiv_pos_as_xyz
  'x, y, z'

loop_
  _atom_site_type_symbol
  _atom_site_label
  _atom_site_symmetry_multiplicity
  _atom_site_fract_x
  _atom_site_fract_y
  _atom_site_fract_z
  _atom_site_occupancy
  _atom_site_charge
Zn  Zn1       1.0  0.19457  0.56081  0.11810  1.0000 0.7464758842
Zn  Zn2       1.0  0.43919  0.80543  0.11810  1.0000 0.7464758842
Zn  Zn3       1.0  0.56081  0.19457  0.88190  1.0000 0.7464758842
Zn  Zn4       1.0  0.80543  0.43919  0.88190  1.0000 0.7464758842
H   H1        1.0  0.25960  0.50980  0.91950  1.0000 0.1107235173
H   H2        1.0  0.49020  0.74040  0.91950  1.0000 0.1107235173
H   H3        1.0  0.20430  0.53070  0.70700  1.0000 0.1308171613
H   H4        1.0  0.46930  0.79570  0.70700  1.0000 0.1308171613
H   H5        1.0  0.94970  0.66150  0.68520  1.0000 0.1401249258
H   H6        1.0  0.33850  0.05030  0.68520  1.0000 0.1401249258
H   H7        1.0  0.01130  0.63950  0.89510  1.0000 0.1107235173
H   H8        1.0  0.36050  0.98870  0.89510  1.0000 0.1107235173
H   H9        1.0  0.15310  0.56850  0.50450  1.0000 0.1308171613
H   H10       1.0  0.43150  0.84690  0.50450  1.0000 0.1308171613
H   H11       1.0  0.91740  0.65760  0.19260  1.0000 0.1218966333
H   H12       1.0  0.34240  0.08260  0.19260  1.0000 0.1218966333
H   H13       1.0  0.62020  0.84800  0.04840  1.0000 0.1107235173
H   H14       1.0  0.15200  0.37980  0.04840  1.0000 0.1107235173
H   H15       1.0  0.78350  0.79510  0.12840  1.0000 0.1401249258
H   H16       1.0  0.20490  0.21650  0.12840  1.0000 0.1401249258
H   H17       1.0  0.75610  0.62450  0.44510  1.0000 0.1401249258
H   H18       1.0  0.37550  0.24390  0.44510  1.0000 0.1401249258
H   H19       1.0  0.59510  0.67810  0.35540  1.0000 0.1218966333
H   H20       1.0  0.32190  0.40490  0.35540  1.0000 0.1218966333
H   H21       1.0  0.50980  0.25960  0.08050  1.0000 0.1107235173
H   H22       1.0  0.74040  0.49020  0.08050  1.0000 0.1107235173
H   H23       1.0  0.53070  0.20430  0.29300  1.0000 0.1308171613
H   H24       1.0  0.79570  0.46930  0.29300  1.0000 0.1308171613
H   H25       1.0  0.66150  0.94970  0.31480  1.0000 0.1401249258
H   H26       1.0  0.05030  0.33850  0.31480  1.0000 0.1401249258
H   H27       1.0  0.63950  0.01130  0.10490  1.0000 0.1107235173
H   H28       1.0  0.98870  0.36050  0.10490  1.0000 0.1107235173
H   H29       1.0  0.56850  0.15310  0.49550  1.0000 0.1308171613
H   H30       1.0  0.84690  0.43150  0.49550  1.0000 0.1308171613
H   H31       1.0  0.65760  0.91740  0.80740  1.0000 0.1218966333
H   H32       1.0  0.08260  0.34240  0.80740  1.0000 0.1218966333
H   H33       1.0  0.84800  0.62020  0.95160  1.0000 0.1107235173
H   H34       1.0  0.37980  0.15200  0.95160  1.0000 0.1107235173
H   H35       1.0  0.79510  0.78350  0.87160  1.0000 0.1401249258
H   H36       1.0  0.21650  0.20490  0.87160  1.0000 0.1401249258
H   H37       1.0  0.62450  0.75610  0.55490  1.0000 0.1401249258
H   H38       1.0  0.24390  0.37550  0.55490  1.0000 0.1401249258
H   H39       1.0  0.67810  0.59510  0.64460  1.0000 0.1218966333
H   H40       1.0  0.40490  0.32190  0.64460  1.0000 0.1218966333
C   C1        1.0  0.19630  0.54130  0.87140  1.0000 0.078104149
C   C2        1.0  0.45870  0.80370  0.87140  1.0000 0.078104149
C   C3        1.0  0.16340  0.55340  0.74340  1.0000 -0.1910430056
C   C4        1.0  0.44660  0.83660  0.74340  1.0000 -0.1910430056
C   C5        1.0  0.06960  0.59960  0.66970  1.0000 0.0918510891
C   C6        1.0  0.40040  0.93040  0.66970  1.0000 0.0918510891
C   C7        1.0  0.01350  0.63070  0.73050  1.0000 -0.166218313
C   C8        1.0  0.36930  0.98650  0.73050  1.0000 -0.166218313
C   C9        1.0  0.05090  0.61690  0.85690  1.0000 0.0918510891
C   C10       1.0  0.38310  0.94910  0.85690  1.0000 0.0918510891
C   C11       1.0  0.02890  0.61350  0.53160  1.0000 0.1978938518
C   C12       1.0  0.38650  0.97110  0.53160  1.0000 0.1978938518
C   C13       1.0  0.08740  0.59220  0.46410  1.0000 -0.1998375418
C   C14       1.0  0.40780  0.91260  0.46410  1.0000 -0.1998375418
C   C15       1.0  0.04450  0.60710  0.33620  1.0000 0.0377988307
C   C16       1.0  0.39290  0.95550  0.33620  1.0000 0.0377988307
C   C17       1.0  0.94730  0.64530  0.27900  1.0000 -0.2102740133
C   C18       1.0  0.35470  0.05270  0.27900  1.0000 -0.2102740133
C   C19       1.0  0.89450  0.66490  0.35210  1.0000 0.1830944693
C   C20       1.0  0.33510  0.10550  0.35210  1.0000 0.1830944693
C   C21       1.0  0.64820  0.80140  0.12880  1.0000 0.0703206225
C   C22       1.0  0.19860  0.35180  0.12880  1.0000 0.0703206225
C   C23       1.0  0.74650  0.77050  0.17640  1.0000 -0.1998375418
C   C24       1.0  0.22950  0.25350  0.17640  1.0000 -0.1998375418
C   C25       1.0  0.78970  0.70190  0.29710  1.0000 0.0918510891
C   C26       1.0  0.29810  0.21030  0.29710  1.0000 0.0918510891
C   C27       1.0  0.73000  0.66920  0.36330  1.0000 -0.1910430056
C   C28       1.0  0.33080  0.27000  0.36330  1.0000 -0.1848937781
C   C29       1.0  0.63350  0.70230  0.30940  1.0000 0.0918510891
C   C30       1.0  0.29770  0.36650  0.30940  1.0000 0.0918510891
C   C31       1.0  0.10380  0.58340  0.25960  1.0000 0.5414471714
C   C32       1.0  0.41660  0.89620  0.25960  1.0000 0.5414471714
C   C33       1.0  0.27260  0.72740  0.08760  1.0000 0.4754783599
C   C34       1.0  0.35820  0.64180  0.13330  1.0000 0.4729455648
C   C35       1.0  0.54130  0.19630  0.12860  1.0000 0.078104149
C   C36       1.0  0.80370  0.45870  0.12860  1.0000 0.078104149
C   C37       1.0  0.55340  0.16340  0.25660  1.0000 -0.1910430056
C   C38       1.0  0.83660  0.44660  0.25660  1.0000 -0.1910430056
C   C39       1.0  0.59960  0.06960  0.33030  1.0000 0.0918510891
C   C40       1.0  0.93040  0.40040  0.33030  1.0000 0.0918510891
C   C41       1.0  0.63070  0.01350  0.26950  1.0000 -0.166218313
C   C42       1.0  0.98650  0.36930  0.26950  1.0000 -0.166218313
C   C43       1.0  0.61690  0.05090  0.14310  1.0000 0.0918510891
C   C44       1.0  0.94910  0.38310  0.14310  1.0000 0.0918510891
C   C45       1.0  0.61350  0.02890  0.46840  1.0000 0.1978938518
C   C46       1.0  0.97110  0.38650  0.46840  1.0000 0.1978938518
C   C47       1.0  0.59220  0.08740  0.53590  1.0000 -0.1998375418
C   C48       1.0  0.91260  0.40780  0.53590  1.0000 -0.1998375418
C   C49       1.0  0.60710  0.04450  0.66380  1.0000 0.0377988307
C   C50       1.0  0.95550  0.39290  0.66380  1.0000 0.0377988307
C   C51       1.0  0.64530  0.94730  0.72100  1.0000 -0.2102740133
C   C52       1.0  0.05270  0.35470  0.72100  1.0000 -0.2102740133
C   C53       1.0  0.66490  0.89450  0.64790  1.0000 0.1830944693
C   C54       1.0  0.10550  0.33510  0.64790  1.0000 0.1830944693
C   C55       1.0  0.80140  0.64820  0.87120  1.0000 0.0703206225
C   C56       1.0  0.35180  0.19860  0.87120  1.0000 0.0703206225
C   C57       1.0  0.77050  0.74650  0.82360  1.0000 -0.1998375418
C   C58       1.0  0.25350  0.22950  0.82360  1.0000 -0.1998375418
C   C59       1.0  0.70190  0.78970  0.70290  1.0000 0.0918510891
C   C60       1.0  0.21030  0.29810  0.70290  1.0000 0.0918510891
C   C61       1.0  0.66920  0.73000  0.63670  1.0000 -0.1910430056
C   C62       1.0  0.27000  0.33080  0.63670  1.0000 -0.1848937781
C   C63       1.0  0.70230  0.63350  0.69060  1.0000 0.0918510891
C   C64       1.0  0.36650  0.29770  0.69060  1.0000 0.0918510891
C   C65       1.0  0.58340  0.10380  0.74040  1.0000 0.5414471714
C   C66       1.0  0.89620  0.41660  0.74040  1.0000 0.5414471714
C   C67       1.0  0.72740  0.27260  0.91240  1.0000 0.4754783599
C   C68       1.0  0.64180  0.35820  0.86670  1.0000 0.4729455648
N   N1        1.0  0.14122  0.57278  0.92840  1.0000 -0.2228486376
N   N2        1.0  0.42722  0.85878  0.92840  1.0000 -0.2228486376
N   N3        1.0  0.93477  0.64837  0.47700  1.0000 -0.3114964874
N   N4        1.0  0.35163  0.06523  0.47700  1.0000 -0.3114964874
N   N5        1.0  0.59102  0.76808  0.19260  1.0000 -0.2102740133
N   N6        1.0  0.23192  0.40898  0.19260  1.0000 -0.2102740133
N   N7        1.0  0.57278  0.14122  0.07160  1.0000 -0.2228486376
N   N8        1.0  0.85878  0.42722  0.07160  1.0000 -0.2228486376
N   N9        1.0  0.64837  0.93477  0.52300  1.0000 -0.3114964874
N   N10       1.0  0.06523  0.35163  0.52300  1.0000 -0.3114964874
N   N11       1.0  0.76808  0.59102  0.80740  1.0000 -0.2102740133
N   N12       1.0  0.40898  0.23192  0.80740  1.0000 -0.2102740133
O   O1        1.0  0.19220  0.55960  0.31020  1.0000 -0.5243431242
O   O2        1.0  0.44040  0.80780  0.31020  1.0000 -0.5243431242
O   O3        1.0  0.06044  0.58828  0.14800  1.0000 -0.5494782837
O   O4        1.0  0.41172  0.93956  0.14800  1.0000 -0.5494782837
O   O5        1.0  0.19183  0.70865  0.07070  1.0000 -0.4772832604
O   O6        1.0  0.29135  0.80817  0.07070  1.0000 -0.4772832604
O   O7        1.0  0.34012  0.55982  0.15000  1.0000 -0.5038216026
O   O8        1.0  0.44018  0.65988  0.15000  1.0000 -0.5038216026
O   O9        1.0  0.55960  0.19220  0.68980  1.0000 -0.5243431242
O   O10       1.0  0.80780  0.44040  0.68980  1.0000 -0.5243431242
O   O11       1.0  0.58828  0.06044  0.85200  1.0000 -0.5494782837
O   O12       1.0  0.93956  0.41172  0.85200  1.0000 -0.5494782837
O   O13       1.0  0.70865  0.19183  0.92930  1.0000 -0.4772832604
O   O14       1.0  0.80817  0.29135  0.92930  1.0000 -0.4772832604
O   O15       1.0  0.55982  0.34012  0.85000  1.0000 -0.5038216026
O   O16       1.0  0.65988  0.44018  0.85000  1.0000 -0.5038216026
