# DDEC6 charges by PACMAN v1.1 (https://github.com/mtap-research/PACMAN-charge/)
data_2008[Cu][dia]3[ASR]4
_chemical_formula_sum              "Cu2 H28 C20 Br2 N8"
_cell_length_a       11.3511
_cell_length_b       11.3511
_cell_length_c       11.3511
_cell_angle_alpha    143.12
_cell_angle_beta     113.678
_cell_angle_gamma    78.376

_symmetry_space_group_name_H-M    "P 1"
_symmetry_Int_Tables_number       1

loop_
  _symmetry_equiv_pos_as_xyz
  'x, y, z'

loop_
  _atom_site_type_symbol
  _atom_site_label
  _atom_site_symmetry_multiplicity
  _atom_site_fract_x
  _atom_site_fract_y
  _atom_site_fract_z
  _atom_site_occupancy
  _atom_site_charge
Cu  Cu1       1.0  0.11111  0.15948  0.77059  1.0000 0.2776888775
Cu  Cu2       1.0  0.88889  0.65948  0.04837  1.0000 0.2776888775
H   H1        1.0  0.15190  0.95670  0.39800  1.0000 0.2711040618
H   H2        1.0  0.84810  0.24610  0.80480  1.0000 0.2711040618
H   H3        1.0  0.05870  0.45670  0.80480  1.0000 0.2711040618
H   H4        1.0  0.94130  0.74610  0.39800  1.0000 0.2711040618
H   H5        1.0  0.37150  0.42820  0.10530  1.0000 0.1593850682
H   H6        1.0  0.62850  0.73380  0.05670  1.0000 0.1593850682
H   H7        1.0  0.82290  0.92820  0.05670  1.0000 0.1593850682
H   H8        1.0  0.17710  0.23380  0.10530  1.0000 0.1593850682
H   H9        1.0  0.50670  0.36630  0.09120  1.0000 0.1508081734
H   H10       1.0  0.49330  0.58450  0.85960  1.0000 0.1508081734
H   H11       1.0  0.77510  0.86630  0.85960  1.0000 0.1508081734
H   H12       1.0  0.22490  0.08450  0.09120  1.0000 0.1508081734
H   H13       1.0  0.47090  0.53900  0.13890  1.0000 0.1402106079
H   H14       1.0  0.52910  0.66800  0.06810  1.0000 0.1402106079
H   H15       1.0  0.90010  0.03900  0.06810  1.0000 0.1402106079
H   H16       1.0  0.09990  0.16800  0.13890  1.0000 0.1402106079
H   H17       1.0  0.24500  0.83890  0.17010  1.0000 0.1508081734
H   H18       1.0  0.75500  0.92510  0.59390  1.0000 0.1508081734
H   H19       1.0  0.16880  0.33890  0.59390  1.0000 0.1508081734
H   H20       1.0  0.83120  0.42510  0.17010  1.0000 0.1508081734
H   H21       1.0  0.35050  0.01090  0.29140  1.0000 0.1593850682
H   H22       1.0  0.64950  0.94090  0.66040  1.0000 0.1593850682
H   H23       1.0  0.21950  0.51090  0.66040  1.0000 0.1593850682
H   H24       1.0  0.78050  0.44090  0.29140  1.0000 0.1593850682
H   H25       1.0  0.39560  0.84430  0.25090  1.0000 0.1508081734
H   H26       1.0  0.60440  0.85530  0.44870  1.0000 0.1508081734
H   H27       1.0  0.09340  0.34430  0.44870  1.0000 0.1508081734
H   H28       1.0  0.90660  0.35530  0.25090  1.0000 0.1508081734
C   C1        1.0  0.43180  0.19280  0.69440  1.0000 -0.1305600332
C   C2        1.0  0.56820  0.26260  0.76100  1.0000 -0.1305600332
C   C3        1.0  0.99840  0.69280  0.76100  1.0000 -0.1305600332
C   C4        1.0  0.00160  0.76260  0.69440  1.0000 -0.1305600332
C   C5        1.0  0.33300  0.04840  0.48840  1.0000 0.1877168583
C   C6        1.0  0.66700  0.15540  0.71540  1.0000 0.1877168583
C   C7        1.0  0.06000  0.54840  0.71540  1.0000 0.1877168583
C   C8        1.0  0.94000  0.65540  0.48840  1.0000 0.1877168583
C   C9        1.0  0.37480  0.26270  0.82730  1.0000 0.2047123032
C   C10       1.0  0.62520  0.45250  0.88790  1.0000 0.2047123032
C   C11       1.0  0.93540  0.76270  0.88790  1.0000 0.2047123032
C   C12       1.0  0.06460  0.95250  0.82730  1.0000 0.2047123032
C   C13       1.0  0.43630  0.41220  0.06130  1.0000 -0.4769836944
C   C14       1.0  0.56370  0.62500  0.97590  1.0000 -0.4769836944
C   C15       1.0  0.85090  0.91220  0.97590  1.0000 -0.4769836944
C   C16       1.0  0.14910  0.12500  0.06130  1.0000 -0.4769836944
C   C17       1.0  0.33090  0.92490  0.28240  1.0000 -0.4861930442
C   C18       1.0  0.66910  0.95150  0.59400  1.0000 -0.4861930442
C   C19       1.0  0.14250  0.42490  0.59400  1.0000 -0.4861930442
C   C20       1.0  0.85750  0.45150  0.28240  1.0000 -0.4861930442
Br  Br1       1.0  0.90526  0.00697  0.41223  1.0000 -0.5368928445
Br  Br2       1.0  0.09474  0.50697  0.10171  1.0000 -0.5368928445
N   N1        1.0  0.24976  0.16426  0.70870  1.0000 -0.2210396995
N   N2        1.0  0.75024  0.45894  0.91450  1.0000 -0.2210396995
N   N3        1.0  0.95556  0.66426  0.91450  1.0000 -0.2210396995
N   N4        1.0  0.04444  0.95894  0.70870  1.0000 -0.2210396995
N   N5        1.0  0.22670  0.03680  0.50530  1.0000 -0.1305600332
N   N6        1.0  0.77330  0.27860  0.81010  1.0000 -0.1305600332
N   N7        1.0  0.03150  0.53680  0.81010  1.0000 -0.1305600332
N   N8        1.0  0.96850  0.77860  0.50530  1.0000 -0.1305600332
