# DDEC6 charges by PACMAN v1.1 (https://github.com/mtap-research/PACMAN-charge/)
data_2010[Zn][sra]3[ASR]2
_chemical_formula_sum              "Zn8 H56 C104 N8 O32"
_cell_length_a       8.2087
_cell_length_b       14.9912
_cell_length_c       22.8227
_cell_angle_alpha    90
_cell_angle_beta     106.304
_cell_angle_gamma    90

_symmetry_space_group_name_H-M    "P 1"
_symmetry_Int_Tables_number       1

loop_
  _symmetry_equiv_pos_as_xyz
  'x, y, z'

loop_
  _atom_site_type_symbol
  _atom_site_label
  _atom_site_symmetry_multiplicity
  _atom_site_fract_x
  _atom_site_fract_y
  _atom_site_fract_z
  _atom_site_occupancy
  _atom_site_charge
Zn  Zn1       1.0  0.19058  0.91909  0.86494  1.0000 0.9282253867
Zn  Zn2       1.0  0.80942  0.41909  0.63506  1.0000 0.9282253867
Zn  Zn3       1.0  0.80942  0.08091  0.13506  1.0000 0.9282253867
Zn  Zn4       1.0  0.19058  0.58091  0.36494  1.0000 0.9282253867
Zn  Zn5       1.0  0.29079  0.76724  0.75717  1.0000 0.8094547278
Zn  Zn6       1.0  0.70921  0.26724  0.74283  1.0000 0.8094547278
Zn  Zn7       1.0  0.70921  0.23276  0.24283  1.0000 0.8094547278
Zn  Zn8       1.0  0.29079  0.73276  0.25717  1.0000 0.8094547278
H   H1        1.0  0.10040  0.12340  0.74610  1.0000 0.1272329575
H   H2        1.0  0.89960  0.62340  0.75390  1.0000 0.1272329575
H   H3        1.0  0.89960  0.87660  0.25390  1.0000 0.1272329575
H   H4        1.0  0.10040  0.37660  0.24610  1.0000 0.1272329575
H   H5        1.0  0.33310  0.11870  0.58510  1.0000 0.109725388
H   H6        1.0  0.66690  0.61870  0.91490  1.0000 0.109725388
H   H7        1.0  0.66690  0.88130  0.41490  1.0000 0.109725388
H   H8        1.0  0.33310  0.38130  0.08510  1.0000 0.109725388
H   H9        1.0  0.34960  0.99400  0.64490  1.0000 0.109725388
H   H10       1.0  0.65040  0.49400  0.85510  1.0000 0.109725388
H   H11       1.0  0.65040  0.00600  0.35510  1.0000 0.109725388
H   H12       1.0  0.34960  0.50600  0.14490  1.0000 0.109725388
H   H13       1.0  0.40840  0.41600  0.53280  1.0000 0.1193235608
H   H14       1.0  0.59160  0.91600  0.96720  1.0000 0.1193235608
H   H15       1.0  0.59160  0.58400  0.46720  1.0000 0.1193235608
H   H16       1.0  0.40840  0.08400  0.03280  1.0000 0.1193235608
H   H17       1.0  0.92210  0.35030  0.45770  1.0000 0.109725388
H   H18       1.0  0.07790  0.85030  0.04230  1.0000 0.109725388
H   H19       1.0  0.07790  0.64970  0.54230  1.0000 0.109725388
H   H20       1.0  0.92210  0.14970  0.95770  1.0000 0.109725388
H   H21       1.0  0.93850  0.24770  0.53390  1.0000 0.1193235608
H   H22       1.0  0.06150  0.74770  0.96610  1.0000 0.1193235608
H   H23       1.0  0.06150  0.75230  0.46610  1.0000 0.1193235608
H   H24       1.0  0.93850  0.25230  0.03390  1.0000 0.1193235608
H   H25       1.0  0.25600  0.61720  0.85100  1.0000 0.109725388
H   H26       1.0  0.74400  0.11720  0.64900  1.0000 0.109725388
H   H27       1.0  0.74400  0.38280  0.14900  1.0000 0.109725388
H   H28       1.0  0.25600  0.88280  0.35100  1.0000 0.109725388
H   H29       1.0  0.24190  0.46330  0.85460  1.0000 0.1272329575
H   H30       1.0  0.75810  0.96330  0.64540  1.0000 0.1272329575
H   H31       1.0  0.75810  0.53670  0.14540  1.0000 0.1272329575
H   H32       1.0  0.24190  0.03670  0.35460  1.0000 0.1272329575
H   H33       1.0  0.26840  0.38040  0.77210  1.0000 0.1272329575
H   H34       1.0  0.73160  0.88040  0.72790  1.0000 0.1272329575
H   H35       1.0  0.73160  0.61960  0.22790  1.0000 0.1272329575
H   H36       1.0  0.26840  0.11960  0.27210  1.0000 0.1272329575
H   H37       1.0  0.31670  0.45210  0.68980  1.0000 0.1395237928
H   H38       1.0  0.68330  0.95210  0.81020  1.0000 0.1395237928
H   H39       1.0  0.68330  0.54790  0.31020  1.0000 0.1395237928
H   H40       1.0  0.31670  0.04790  0.18980  1.0000 0.1395237928
H   H41       1.0  0.40820  0.52840  0.62340  1.0000 0.1395237928
H   H42       1.0  0.59180  0.02840  0.87660  1.0000 0.1395237928
H   H43       1.0  0.59180  0.47160  0.37660  1.0000 0.1395237928
H   H44       1.0  0.40820  0.97160  0.12340  1.0000 0.1395237928
H   H45       1.0  0.46350  0.61580  0.54970  1.0000 0.1395237928
H   H46       1.0  0.53650  0.11580  0.95030  1.0000 0.1395237928
H   H47       1.0  0.53650  0.38420  0.45030  1.0000 0.1395237928
H   H48       1.0  0.46350  0.88420  0.04970  1.0000 0.1395237928
H   H49       1.0  0.45150  0.76750  0.55790  1.0000 0.1395237928
H   H50       1.0  0.54850  0.26750  0.94210  1.0000 0.1395237928
H   H51       1.0  0.54850  0.23250  0.44210  1.0000 0.1395237928
H   H52       1.0  0.45150  0.73250  0.05790  1.0000 0.1395237928
H   H53       1.0  0.37780  0.82960  0.63870  1.0000 0.109725388
H   H54       1.0  0.62220  0.32960  0.86130  1.0000 0.109725388
H   H55       1.0  0.62220  0.17040  0.36130  1.0000 0.109725388
H   H56       1.0  0.37780  0.67040  0.13870  1.0000 0.109725388
C   C1        1.0  0.23985  0.96580  0.74285  1.0000 0.5874290949
C   C2        1.0  0.76015  0.46580  0.75715  1.0000 0.5874290949
C   C3        1.0  0.76015  0.03420  0.25715  1.0000 0.5874290949
C   C4        1.0  0.23985  0.53420  0.24285  1.0000 0.5874290949
C   C5        1.0  0.22835  0.04610  0.70235  1.0000 -0.0345161582
C   C6        1.0  0.77165  0.54610  0.79765  1.0000 -0.0345161582
C   C7        1.0  0.77165  0.95390  0.29765  1.0000 -0.0345161582
C   C8        1.0  0.22835  0.45390  0.20235  1.0000 -0.0345161582
C   C9        1.0  0.14392  0.12180  0.71262  1.0000 -0.1219431201
C   C10       1.0  0.85608  0.62180  0.78738  1.0000 -0.1219431201
C   C11       1.0  0.85608  0.87820  0.28738  1.0000 -0.1219431201
C   C12       1.0  0.14392  0.37820  0.21262  1.0000 -0.1219431201
C   C13       1.0  0.12222  0.19560  0.67442  1.0000 -0.0760052168
C   C14       1.0  0.87778  0.69560  0.82558  1.0000 -0.0760052168
C   C15       1.0  0.87778  0.80440  0.32558  1.0000 -0.0760052168
C   C16       1.0  0.12222  0.30440  0.17442  1.0000 -0.0760052168
C   C17       1.0  0.19497  0.19530  0.62557  1.0000 0.070562559
C   C18       1.0  0.80503  0.69530  0.87443  1.0000 0.070562559
C   C19       1.0  0.80503  0.80470  0.37443  1.0000 0.070562559
C   C20       1.0  0.19497  0.30470  0.12557  1.0000 0.070562559
C   C21       1.0  0.28212  0.11930  0.61672  1.0000 -0.1435124093
C   C22       1.0  0.71788  0.61930  0.88328  1.0000 -0.1435124093
C   C23       1.0  0.71788  0.88070  0.38328  1.0000 -0.1435124093
C   C24       1.0  0.28212  0.38070  0.11672  1.0000 -0.1435124093
C   C25       1.0  0.29542  0.04490  0.65332  1.0000 -0.1063662732
C   C26       1.0  0.70458  0.54490  0.84668  1.0000 -0.1063662732
C   C27       1.0  0.70458  0.95510  0.34668  1.0000 -0.1063662732
C   C28       1.0  0.29542  0.45510  0.15332  1.0000 -0.1063662732
C   C29       1.0  0.01393  0.27120  0.68543  1.0000 0.5777824706
C   C30       1.0  0.98607  0.77120  0.81457  1.0000 0.5777824706
C   C31       1.0  0.98607  0.72880  0.31457  1.0000 0.5777824706
C   C32       1.0  0.01393  0.22880  0.18543  1.0000 0.5777824706
C   C33       1.0  0.18355  0.26910  0.58055  1.0000 0.070562559
C   C34       1.0  0.81645  0.76910  0.91945  1.0000 0.070562559
C   C35       1.0  0.81645  0.73090  0.41945  1.0000 0.070562559
C   C36       1.0  0.18355  0.23090  0.08055  1.0000 0.070562559
C   C37       1.0  0.32512  0.31980  0.57942  1.0000 -0.0760052168
C   C38       1.0  0.67488  0.81980  0.92058  1.0000 -0.0760052168
C   C39       1.0  0.67488  0.68020  0.42058  1.0000 -0.0760052168
C   C40       1.0  0.32512  0.18020  0.07942  1.0000 -0.0760052168
C   C41       1.0  0.49178  0.31160  0.62748  1.0000 0.5777824706
C   C42       1.0  0.50822  0.81160  0.87252  1.0000 0.5777824706
C   C43       1.0  0.50822  0.68840  0.37252  1.0000 0.5777824706
C   C44       1.0  0.49178  0.18840  0.12748  1.0000 0.5777824706
C   C45       1.0  0.31371  0.38210  0.53311  1.0000 -0.1294510962
C   C46       1.0  0.68629  0.88210  0.96689  1.0000 -0.1294510962
C   C47       1.0  0.68629  0.61790  0.46689  1.0000 -0.1294510962
C   C48       1.0  0.31371  0.11790  0.03311  1.0000 -0.1294510962
C   C49       1.0  0.16360  0.39430  0.48760  1.0000 -0.012673211
C   C50       1.0  0.83640  0.89430  0.01240  1.0000 -0.012673211
C   C51       1.0  0.83640  0.60570  0.51240  1.0000 -0.012673211
C   C52       1.0  0.16360  0.10570  0.98760  1.0000 -0.012673211
C   C53       1.0  0.02352  0.34310  0.48832  1.0000 -0.0927420372
C   C54       1.0  0.97648  0.84310  0.01168  1.0000 -0.0927420372
C   C55       1.0  0.97648  0.65690  0.51168  1.0000 -0.0927420372
C   C56       1.0  0.02352  0.15690  0.98832  1.0000 -0.0927420372
C   C57       1.0  0.03355  0.28160  0.53405  1.0000 -0.1294510962
C   C58       1.0  0.96645  0.78160  0.96595  1.0000 -0.1294510962
C   C59       1.0  0.96645  0.71840  0.46595  1.0000 -0.1294510962
C   C60       1.0  0.03355  0.21840  0.03405  1.0000 -0.1294510962
C   C61       1.0  0.15298  0.46040  0.43708  1.0000 0.5396400577
C   C62       1.0  0.84702  0.96040  0.06292  1.0000 0.5396400577
C   C63       1.0  0.84702  0.53960  0.56292  1.0000 0.5396400577
C   C64       1.0  0.15298  0.03960  0.93708  1.0000 0.5396400577
C   C65       1.0  0.27010  0.58370  0.81850  1.0000 0.0961656774
C   C66       1.0  0.72990  0.08370  0.68150  1.0000 0.0961656774
C   C67       1.0  0.72990  0.41630  0.18150  1.0000 0.0961656774
C   C68       1.0  0.27010  0.91630  0.31850  1.0000 0.0961656774
C   C69       1.0  0.25990  0.49150  0.82070  1.0000 -0.1490231419
C   C70       1.0  0.74010  0.99150  0.67930  1.0000 -0.1490231419
C   C71       1.0  0.74010  0.50850  0.17930  1.0000 -0.1490231419
C   C72       1.0  0.25990  0.00850  0.32070  1.0000 -0.1490231419
C   C73       1.0  0.27680  0.44230  0.77180  1.0000 -0.0199090859
C   C74       1.0  0.72320  0.94230  0.72820  1.0000 -0.0199090859
C   C75       1.0  0.72320  0.55770  0.22820  1.0000 -0.0199090859
C   C76       1.0  0.27680  0.05770  0.27180  1.0000 -0.0199090859
C   C77       1.0  0.30580  0.48460  0.72320  1.0000 -0.1294510962
C   C78       1.0  0.69420  0.98460  0.77680  1.0000 -0.1294510962
C   C79       1.0  0.69420  0.51540  0.27680  1.0000 -0.1294510962
C   C80       1.0  0.30580  0.01540  0.22320  1.0000 -0.1294510962
C   C81       1.0  0.31920  0.57750  0.72380  1.0000 0.1772695406
C   C82       1.0  0.68080  0.07750  0.77620  1.0000 0.1772695406
C   C83       1.0  0.68080  0.42250  0.27620  1.0000 0.1772695406
C   C84       1.0  0.31920  0.92250  0.22380  1.0000 0.1772695406
C   C85       1.0  0.35700  0.62870  0.67460  1.0000 0.1772695406
C   C86       1.0  0.64300  0.12870  0.82540  1.0000 0.1772695406
C   C87       1.0  0.64300  0.37130  0.32540  1.0000 0.1772695406
C   C88       1.0  0.35700  0.87130  0.17460  1.0000 0.1772695406
C   C89       1.0  0.40160  0.59020  0.62600  1.0000 -0.1435124093
C   C90       1.0  0.59840  0.09020  0.87400  1.0000 -0.1435124093
C   C91       1.0  0.59840  0.40980  0.37400  1.0000 -0.1435124093
C   C92       1.0  0.40160  0.90980  0.12600  1.0000 -0.1435124093
C   C93       1.0  0.43510  0.64160  0.58260  1.0000 -0.0199090859
C   C94       1.0  0.56490  0.14160  0.91740  1.0000 -0.0199090859
C   C95       1.0  0.56490  0.35840  0.41740  1.0000 -0.0199090859
C   C96       1.0  0.43510  0.85840  0.08260  1.0000 -0.0199090859
C   C97       1.0  0.42720  0.73100  0.58730  1.0000 -0.1490231419
C   C98       1.0  0.57280  0.23100  0.91270  1.0000 -0.1490231419
C   C99       1.0  0.57280  0.26900  0.41270  1.0000 -0.1490231419
C   C100      1.0  0.42720  0.76900  0.08730  1.0000 -0.1490231419
C   C101      1.0  0.38280  0.76780  0.63590  1.0000 0.0838549359
C   C102      1.0  0.61720  0.26780  0.86410  1.0000 0.0838549359
C   C103      1.0  0.61720  0.23220  0.36410  1.0000 0.0838549359
C   C104      1.0  0.38280  0.73220  0.13590  1.0000 0.0838549359
N   N1        1.0  0.29923  0.62550  0.77103  1.0000 -0.2613140979
N   N2        1.0  0.70077  0.12550  0.72897  1.0000 -0.2613140979
N   N3        1.0  0.70077  0.37450  0.22897  1.0000 -0.2613140979
N   N4        1.0  0.29923  0.87450  0.27103  1.0000 -0.2613140979
N   N5        1.0  0.34686  0.71800  0.67896  1.0000 -0.2613140979
N   N6        1.0  0.65314  0.21800  0.82104  1.0000 -0.2613140979
N   N7        1.0  0.65314  0.28200  0.32104  1.0000 -0.2613140979
N   N8        1.0  0.34686  0.78200  0.17896  1.0000 -0.2613140979
O   O1        1.0  0.25815  0.89193  0.72075  1.0000 -0.5441543574
O   O2        1.0  0.74185  0.39193  0.77925  1.0000 -0.5441543574
O   O3        1.0  0.74185  0.10807  0.27925  1.0000 -0.5441543574
O   O4        1.0  0.25815  0.60807  0.22075  1.0000 -0.5441543574
O   O5        1.0  0.23003  0.98154  0.79593  1.0000 -0.5598873609
O   O6        1.0  0.76997  0.48154  0.70407  1.0000 -0.5598873609
O   O7        1.0  0.76997  0.01846  0.20407  1.0000 -0.5598873609
O   O8        1.0  0.23003  0.51846  0.29593  1.0000 -0.5598873609
O   O9        1.0  0.00295  0.33914  0.65285  1.0000 -0.5184634739
O   O10       1.0  0.99705  0.83914  0.84715  1.0000 -0.5184634739
O   O11       1.0  0.99705  0.66086  0.34715  1.0000 -0.5184634739
O   O12       1.0  0.00295  0.16086  0.15285  1.0000 -0.5184634739
O   O13       1.0  0.94145  0.26122  0.72675  1.0000 -0.5658464545
O   O14       1.0  0.05855  0.76122  0.77325  1.0000 -0.5658464545
O   O15       1.0  0.05855  0.73878  0.27325  1.0000 -0.5658464545
O   O16       1.0  0.94145  0.23878  0.22675  1.0000 -0.5658464545
O   O17       1.0  0.48894  0.29217  0.68084  1.0000 -0.5283099526
O   O18       1.0  0.51106  0.79217  0.81916  1.0000 -0.5283099526
O   O19       1.0  0.51106  0.70783  0.31916  1.0000 -0.5283099526
O   O20       1.0  0.48894  0.20783  0.18084  1.0000 -0.5283099526
O   O21       1.0  0.62564  0.32429  0.61204  1.0000 -0.5774943346
O   O22       1.0  0.37436  0.82429  0.88796  1.0000 -0.5774943346
O   O23       1.0  0.37436  0.67571  0.38796  1.0000 -0.5774943346
O   O24       1.0  0.62564  0.17571  0.11204  1.0000 -0.5774943346
O   O25       1.0  0.27443  0.51478  0.44263  1.0000 -0.5441543574
O   O26       1.0  0.72557  0.01478  0.05737  1.0000 -0.5441543574
O   O27       1.0  0.72557  0.48522  0.55737  1.0000 -0.5441543574
O   O28       1.0  0.27443  0.98522  0.94263  1.0000 -0.5454539174
O   O29       1.0  0.03061  0.45960  0.39091  1.0000 -0.5283099526
O   O30       1.0  0.96939  0.95960  0.10909  1.0000 -0.5283099526
O   O31       1.0  0.96939  0.54040  0.60909  1.0000 -0.5283099526
O   O32       1.0  0.03061  0.04040  0.89091  1.0000 -0.5283099526
