# DDEC6 charges by PACMAN v1.1 (https://github.com/mtap-research/PACMAN-charge/)
data_2008[Co][dia]3[ASR]5
_chemical_formula_sum              "Co12 H24 C24 O48"
_cell_length_a       11.418
_cell_length_b       10.076
_cell_length_c       18.5522
_cell_angle_alpha    90
_cell_angle_beta     126.551
_cell_angle_gamma    90

_symmetry_space_group_name_H-M    "P 1"
_symmetry_Int_Tables_number       1

loop_
  _symmetry_equiv_pos_as_xyz
  'x, y, z'

loop_
  _atom_site_type_symbol
  _atom_site_label
  _atom_site_symmetry_multiplicity
  _atom_site_fract_x
  _atom_site_fract_y
  _atom_site_fract_z
  _atom_site_occupancy
  _atom_site_charge
Co  Co1       1.0  0.56528  0.12246  0.30475  1.0000 0.9570646801
Co  Co2       1.0  0.43472  0.62246  0.19525  1.0000 0.9570646801
Co  Co3       1.0  0.43472  0.87754  0.69525  1.0000 0.9570646801
Co  Co4       1.0  0.56528  0.37754  0.80475  1.0000 0.9570646801
Co  Co5       1.0  0.37911  0.92746  0.13403  1.0000 0.9705035456
Co  Co6       1.0  0.62089  0.42746  0.36597  1.0000 0.9705035456
Co  Co7       1.0  0.62089  0.07254  0.86597  1.0000 0.9705035456
Co  Co8       1.0  0.37911  0.57254  0.63403  1.0000 0.9705035456
Co  Co9       1.0  0.00000  0.00000  0.00000  1.0000 1.0029527315
Co  Co10      1.0  0.00000  0.50000  0.50000  1.0000 1.0029527315
Co  Co11      1.0  0.50000  0.00000  0.00000  1.0000 1.0029527315
Co  Co12      1.0  0.50000  0.50000  0.50000  1.0000 1.0029527315
H   H1        1.0  0.24790  0.22090  0.21200  1.0000 0.1057239851
H   H2        1.0  0.75210  0.72090  0.28800  1.0000 0.1057239851
H   H3        1.0  0.75210  0.77910  0.78800  1.0000 0.1057239851
H   H4        1.0  0.24790  0.27910  0.71200  1.0000 0.1057239851
H   H5        1.0  0.22990  0.14940  0.92650  1.0000 0.0991544766
H   H6        1.0  0.77010  0.64940  0.57350  1.0000 0.0991544766
H   H7        1.0  0.77010  0.85060  0.07350  1.0000 0.0991544766
H   H8        1.0  0.22990  0.35060  0.42650  1.0000 0.0991544766
H   H9        1.0  0.77990  0.05080  0.25700  1.0000 0.0991544766
H   H10       1.0  0.22010  0.55080  0.24300  1.0000 0.0991544766
H   H11       1.0  0.22010  0.94920  0.74300  1.0000 0.0991544766
H   H12       1.0  0.77990  0.44920  0.75700  1.0000 0.0991544766
H   H13       1.0  0.97120  0.21730  0.46690  1.0000 0.1057239851
H   H14       1.0  0.02880  0.71730  0.03310  1.0000 0.1057239851
H   H15       1.0  0.02880  0.78270  0.53310  1.0000 0.1057239851
H   H16       1.0  0.97120  0.28270  0.96690  1.0000 0.1057239851
H   H17       1.0  0.47640  0.27460  0.13000  1.0000 0.1057239851
H   H18       1.0  0.52360  0.77460  0.37000  1.0000 0.1057239851
H   H19       1.0  0.52360  0.72540  0.87000  1.0000 0.1057239851
H   H20       1.0  0.47640  0.22540  0.63000  1.0000 0.1057239851
H   H21       1.0  0.50840  0.12840  0.44910  1.0000 0.0991544766
H   H22       1.0  0.49160  0.62840  0.05090  1.0000 0.0991544766
H   H23       1.0  0.49160  0.87160  0.55090  1.0000 0.0991544766
H   H24       1.0  0.50840  0.37160  0.94910  1.0000 0.0991544766
C   C1        1.0  0.23230  0.15150  0.17410  1.0000 0.4793170311
C   C2        1.0  0.76770  0.65150  0.32590  1.0000 0.4793170311
C   C3        1.0  0.76770  0.84850  0.82590  1.0000 0.4793170311
C   C4        1.0  0.23230  0.34850  0.67410  1.0000 0.4793170311
C   C5        1.0  0.22380  0.09570  0.96490  1.0000 0.5015076392
C   C6        1.0  0.77620  0.59570  0.53510  1.0000 0.5015076392
C   C7        1.0  0.77620  0.90430  0.03510  1.0000 0.5015076392
C   C8        1.0  0.22380  0.40430  0.46490  1.0000 0.5015076392
C   C9        1.0  0.68840  0.02740  0.20600  1.0000 0.4793170311
C   C10       1.0  0.31160  0.52740  0.29400  1.0000 0.4793170311
C   C11       1.0  0.31160  0.97260  0.79400  1.0000 0.4793170311
C   C12       1.0  0.68840  0.47260  0.70600  1.0000 0.4793170311
C   C13       1.0  0.87150  0.23360  0.43260  1.0000 0.5015076392
C   C14       1.0  0.12850  0.73360  0.06740  1.0000 0.5015076392
C   C15       1.0  0.12850  0.76640  0.56740  1.0000 0.5015076392
C   C16       1.0  0.87150  0.26640  0.93260  1.0000 0.5015076392
C   C17       1.0  0.48960  0.34210  0.16840  1.0000 0.4874615886
C   C18       1.0  0.51040  0.84210  0.33160  1.0000 0.4874615886
C   C19       1.0  0.51040  0.65790  0.83160  1.0000 0.4874615886
C   C20       1.0  0.48960  0.15790  0.66840  1.0000 0.4874615886
C   C21       1.0  0.52070  0.21840  0.44410  1.0000 0.4874615886
C   C22       1.0  0.47930  0.71840  0.05590  1.0000 0.4874615886
C   C23       1.0  0.47930  0.78160  0.55590  1.0000 0.4874615886
C   C24       1.0  0.52070  0.28160  0.94410  1.0000 0.4874615886
O   O1        1.0  0.10429  0.12750  0.11059  1.0000 -0.5027997234
O   O2        1.0  0.89571  0.62750  0.38941  1.0000 -0.5027997234
O   O3        1.0  0.89571  0.87250  0.88941  1.0000 -0.5027997234
O   O4        1.0  0.10429  0.37250  0.61059  1.0000 -0.5027997234
O   O5        1.0  0.34518  0.08990  0.19267  1.0000 -0.5734219696
O   O6        1.0  0.65482  0.58990  0.30733  1.0000 -0.5734219696
O   O7        1.0  0.65482  0.91010  0.80733  1.0000 -0.5734219696
O   O8        1.0  0.34518  0.41010  0.69267  1.0000 -0.5734219696
O   O9        1.0  0.10742  0.09690  0.95587  1.0000 -0.5116878432
O   O10       1.0  0.89258  0.59690  0.54413  1.0000 -0.5116878432
O   O11       1.0  0.89258  0.90310  0.04413  1.0000 -0.5116878432
O   O12       1.0  0.10742  0.40310  0.45587  1.0000 -0.5116878432
O   O13       1.0  0.33789  0.02670  0.02299  1.0000 -0.5792290799
O   O14       1.0  0.66211  0.52670  0.47701  1.0000 -0.5792290799
O   O15       1.0  0.66211  0.97330  0.97701  1.0000 -0.5792290799
O   O16       1.0  0.33789  0.47330  0.52299  1.0000 -0.5792290799
O   O17       1.0  0.67785  0.01010  0.13635  1.0000 -0.5027997234
O   O18       1.0  0.32215  0.51010  0.36365  1.0000 -0.5116878432
O   O19       1.0  0.32215  0.98990  0.86365  1.0000 -0.5116878432
O   O20       1.0  0.67785  0.48990  0.63635  1.0000 -0.5027997234
O   O21       1.0  0.58613  0.01650  0.21482  1.0000 -0.5734219696
O   O22       1.0  0.41387  0.51650  0.28518  1.0000 -0.5734219696
O   O23       1.0  0.41387  0.98350  0.78518  1.0000 -0.5792290799
O   O24       1.0  0.58613  0.48350  0.71482  1.0000 -0.5792290799
O   O25       1.0  0.78956  0.13650  0.39296  1.0000 -0.5027997234
O   O26       1.0  0.21044  0.63650  0.10704  1.0000 -0.5027997234
O   O27       1.0  0.21044  0.86350  0.60704  1.0000 -0.5027997234
O   O28       1.0  0.78956  0.36350  0.89296  1.0000 -0.5027997234
O   O29       1.0  0.83282  0.35280  0.43102  1.0000 -0.5595348261
O   O30       1.0  0.16718  0.85280  0.06898  1.0000 -0.5595348261
O   O31       1.0  0.16718  0.64720  0.56898  1.0000 -0.5595348261
O   O32       1.0  0.83282  0.14720  0.93102  1.0000 -0.5595348261
O   O33       1.0  0.55609  0.31200  0.25111  1.0000 -0.5734219696
O   O34       1.0  0.44391  0.81200  0.24889  1.0000 -0.5734219696
O   O35       1.0  0.44391  0.68800  0.74889  1.0000 -0.5734219696
O   O36       1.0  0.55609  0.18800  0.75111  1.0000 -0.5734219696
O   O37       1.0  0.44064  0.45350  0.13454  1.0000 -0.5027997234
O   O38       1.0  0.55936  0.95350  0.36546  1.0000 -0.5027997234
O   O39       1.0  0.55936  0.54650  0.86546  1.0000 -0.5027997234
O   O40       1.0  0.44064  0.04650  0.63454  1.0000 -0.5027997234
O   O41       1.0  0.54404  0.25080  0.38708  1.0000 -0.5734219696
O   O42       1.0  0.45596  0.75080  0.11292  1.0000 -0.5734219696
O   O43       1.0  0.45596  0.74920  0.61292  1.0000 -0.5734219696
O   O44       1.0  0.54404  0.24920  0.88708  1.0000 -0.5734219696
O   O45       1.0  0.51295  0.29520  0.49383  1.0000 -0.5190427236
O   O46       1.0  0.48705  0.79520  0.00617  1.0000 -0.5190427236
O   O47       1.0  0.48705  0.70480  0.50617  1.0000 -0.5190427236
O   O48       1.0  0.51295  0.20480  0.99383  1.0000 -0.5190427236
