# DDEC6 charges by PACMAN v1.1 (https://github.com/mtap-research/PACMAN-charge/)
data_2012[Co][fsc]3[ASR]1
_chemical_formula_sum              "Co2 H32 C48 N4 O10"
_cell_length_a       9.2992
_cell_length_b       11.519
_cell_length_c       13.262
_cell_angle_alpha    90
_cell_angle_beta     90.913
_cell_angle_gamma    90

_symmetry_space_group_name_H-M    "P 1"
_symmetry_Int_Tables_number       1

loop_
  _symmetry_equiv_pos_as_xyz
  'x, y, z'

loop_
  _atom_site_type_symbol
  _atom_site_label
  _atom_site_symmetry_multiplicity
  _atom_site_fract_x
  _atom_site_fract_y
  _atom_site_fract_z
  _atom_site_occupancy
  _atom_site_charge
Co  Co1       1.0  0.25000  0.44970  0.50000  1.0000 0.9333953111
Co  Co2       1.0  0.75000  0.55030  0.50000  1.0000 0.9333953111
H   H1        1.0  0.76160  0.53740  0.23400  1.0000 0.1186308586
H   H2        1.0  0.73840  0.53740  0.76600  1.0000 0.1186308586
H   H3        1.0  0.23840  0.46260  0.76600  1.0000 0.1186308586
H   H4        1.0  0.26160  0.46260  0.23400  1.0000 0.1186308586
H   H5        1.0  0.66430  0.45390  0.08950  1.0000 0.1404533031
H   H6        1.0  0.83570  0.45390  0.91050  1.0000 0.1404533031
H   H7        1.0  0.33570  0.54610  0.91050  1.0000 0.1404533031
H   H8        1.0  0.16430  0.54610  0.08950  1.0000 0.1404533031
H   H9        1.0  0.97450  0.21180  0.09690  1.0000 0.1404533031
H   H10       1.0  0.52550  0.21180  0.90310  1.0000 0.1404533031
H   H11       1.0  0.02550  0.78820  0.90310  1.0000 0.1404533031
H   H12       1.0  0.47450  0.78820  0.09690  1.0000 0.1404533031
H   H13       1.0  0.07110  0.29560  0.24140  1.0000 0.1186308586
H   H14       1.0  0.42890  0.29560  0.75860  1.0000 0.1186308586
H   H15       1.0  0.92890  0.70440  0.75860  1.0000 0.1186308586
H   H16       1.0  0.57110  0.70440  0.24140  1.0000 0.1186308586
H   H17       1.0  0.06860  0.23790  0.42560  1.0000 0.1057405778
H   H18       1.0  0.43140  0.23790  0.57440  1.0000 0.1057405778
H   H19       1.0  0.93140  0.76210  0.57440  1.0000 0.1057405778
H   H20       1.0  0.56860  0.76210  0.42560  1.0000 0.1057405778
H   H21       1.0  0.06880  0.03950  0.41670  1.0000 0.1186308586
H   H22       1.0  0.43120  0.03950  0.58330  1.0000 0.1186308586
H   H23       1.0  0.93120  0.96050  0.58330  1.0000 0.1186308586
H   H24       1.0  0.56880  0.96050  0.41670  1.0000 0.1186308586
H   H25       1.0  0.15000  0.86040  0.36520  1.0000 0.1337830721
H   H26       1.0  0.35000  0.86040  0.63480  1.0000 0.1337830721
H   H27       1.0  0.85000  0.13960  0.63480  1.0000 0.1337830721
H   H28       1.0  0.65000  0.13960  0.36520  1.0000 0.1337830721
H   H29       1.0  0.15610  0.66200  0.36810  1.0000 0.1057405778
H   H30       1.0  0.34390  0.66200  0.63190  1.0000 0.1057405778
H   H31       1.0  0.84390  0.33800  0.63190  1.0000 0.1057405778
H   H32       1.0  0.65610  0.33800  0.36810  1.0000 0.1057405778
C   C1        1.0  0.98330  0.47590  0.35129  1.0000 0.5711512713
C   C2        1.0  0.51670  0.47590  0.64871  1.0000 0.5711512713
C   C3        1.0  0.01670  0.52410  0.64871  1.0000 0.5711512713
C   C4        1.0  0.48330  0.52410  0.35129  1.0000 0.5711512713
C   C5        1.0  0.92560  0.42421  0.25387  1.0000 -0.0521017762
C   C6        1.0  0.57440  0.42421  0.74613  1.0000 -0.0521017762
C   C7        1.0  0.07440  0.57579  0.74613  1.0000 -0.0521017762
C   C8        1.0  0.42560  0.57579  0.25387  1.0000 -0.0521017762
C   C9        1.0  0.80400  0.47150  0.20693  1.0000 -0.0815969018
C   C10       1.0  0.69600  0.47150  0.79307  1.0000 -0.0815969018
C   C11       1.0  0.19600  0.52850  0.79307  1.0000 -0.0815969018
C   C12       1.0  0.30400  0.52850  0.20693  1.0000 -0.0815969018
C   C13       1.0  0.74540  0.42180  0.12049  1.0000 -0.2178354012
C   C14       1.0  0.75460  0.42180  0.87951  1.0000 -0.2178354012
C   C15       1.0  0.25460  0.57820  0.87951  1.0000 -0.2178354012
C   C16       1.0  0.24540  0.57820  0.12049  1.0000 -0.2178354012
C   C17       1.0  0.80900  0.32420  0.08109  1.0000 0.2452716081
C   C18       1.0  0.69100  0.32420  0.91891  1.0000 0.2452716081
C   C19       1.0  0.19100  0.67580  0.91891  1.0000 0.2452716081
C   C20       1.0  0.30900  0.67580  0.08109  1.0000 0.2452716081
C   C21       1.0  0.93130  0.27680  0.12505  1.0000 -0.2111452075
C   C22       1.0  0.56870  0.27680  0.87495  1.0000 -0.2111452075
C   C23       1.0  0.06870  0.72320  0.87495  1.0000 -0.2111452075
C   C24       1.0  0.43130  0.72320  0.12505  1.0000 -0.2111452075
C   C25       1.0  0.98890  0.32720  0.21145  1.0000 -0.099784706
C   C26       1.0  0.51110  0.32720  0.78855  1.0000 -0.099784706
C   C27       1.0  0.01110  0.67280  0.78855  1.0000 -0.099784706
C   C28       1.0  0.48890  0.67280  0.21145  1.0000 -0.099784706
C   C29       1.0  0.14460  0.19760  0.45556  1.0000 0.0939852505
C   C30       1.0  0.35540  0.19760  0.54444  1.0000 0.0939852505
C   C31       1.0  0.85540  0.80240  0.54444  1.0000 0.0939852505
C   C32       1.0  0.64460  0.80240  0.45556  1.0000 0.0939852505
C   C33       1.0  0.14240  0.07760  0.45165  1.0000 -0.2178354012
C   C34       1.0  0.35760  0.07760  0.54835  1.0000 -0.2178354012
C   C35       1.0  0.85760  0.92240  0.54835  1.0000 -0.2178354012
C   C36       1.0  0.64240  0.92240  0.45165  1.0000 -0.2178354012
C   C37       1.0  0.25000  0.01400  0.50000  1.0000 0.0986293925
C   C38       1.0  0.75000  0.98600  0.50000  1.0000 0.0986293925
C   C39       1.0  0.25000  0.88540  0.50000  1.0000 0.0939852505
C   C40       1.0  0.75000  0.11460  0.50000  1.0000 0.0939852505
C   C41       1.0  0.19130  0.82220  0.42019  1.0000 -0.2010500582
C   C42       1.0  0.30870  0.82220  0.57981  1.0000 -0.2010500582
C   C43       1.0  0.80870  0.17780  0.57981  1.0000 -0.2010500582
C   C44       1.0  0.69130  0.17780  0.42019  1.0000 -0.2010500582
C   C45       1.0  0.19460  0.70230  0.42298  1.0000 0.0939852505
C   C46       1.0  0.30540  0.70230  0.57702  1.0000 0.0939852505
C   C47       1.0  0.80540  0.29770  0.57702  1.0000 0.0939852505
C   C48       1.0  0.69460  0.29770  0.42298  1.0000 0.0939852505
N   N1        1.0  0.25000  0.25870  0.50000  1.0000 -0.2111452075
N   N2        1.0  0.75000  0.74130  0.50000  1.0000 -0.2111452075
N   N3        1.0  0.25000  0.64080  0.50000  1.0000 -0.2547094526
N   N4        1.0  0.75000  0.35920  0.50000  1.0000 -0.2547094526
O   O1        1.0  0.10331  0.43752  0.38090  1.0000 -0.5691186638
O   O2        1.0  0.39669  0.43752  0.61910  1.0000 -0.5691186638
O   O3        1.0  0.89669  0.56248  0.61910  1.0000 -0.5691186638
O   O4        1.0  0.60331  0.56248  0.38090  1.0000 -0.5691186638
O   O5        1.0  0.91122  0.55311  0.39329  1.0000 -0.5571486206
O   O6        1.0  0.58878  0.55311  0.60671  1.0000 -0.5571486206
O   O7        1.0  0.08878  0.44689  0.60671  1.0000 -0.5571486206
O   O8        1.0  0.41122  0.44689  0.39329  1.0000 -0.5571486206
O   O9        1.0  0.75000  0.26320  0.00000  1.0000 -0.2178354012
O   O10       1.0  0.25000  0.73680  0.00000  1.0000 -0.2178354012
