# DDEC6 charges by PACMAN v1.1 (https://github.com/mtap-research/PACMAN-charge/)
data_ZISYAD_ASR_pacman
_symmetry_space_group_name_H-M   'P 1'
_cell_length_a   19.45490000
_cell_length_b   19.45490000
_cell_length_c   19.45490000
_cell_angle_alpha   91.91400000
_cell_angle_beta   91.91400000
_cell_angle_gamma   158.93900000
_symmetry_Int_Tables_number   1
_chemical_formula_structural   Cu2H48C61(IN2)2
_chemical_formula_sum   'Cu4 H96 C122 I4 N8'
_cell_volume   2601.61262546
_cell_formula_units_Z   2
loop_
 _symmetry_equiv_pos_site_id
 _symmetry_equiv_pos_as_xyz
  1  'x, y, z'
loop_
 _atom_site_type_symbol
 _atom_site_label
 _atom_site_symmetry_multiplicity
 _atom_site_fract_x
 _atom_site_fract_y
 _atom_site_fract_z
 _atom_site_occupancy
 _atom_site_charge
Cu  Cu1  1  0.12500000  0.07480000  0.44980000  1.0 0.0922225565
Cu  Cu2  1  0.62500000  0.67520000  0.55020000  1.0 0.0922225565
Cu  Cu3  1  0.92520000  0.37500000  0.05020000  1.0 0.0922225565
Cu  Cu4  1  0.32480000  0.87500000  0.94980000  1.0 0.0922225565
H  H1  1  0.14950000  0.94190000  0.42580000  1.0 0.0922225565
H  H2  1  0.73390000  0.80810000  0.70760000  1.0 0.0922225565
H  H3  1  0.51610000  0.72370000  0.57420000  1.0 0.0922225565
H  H4  1  0.10050000  0.02630000  0.29240000  1.0 0.0922225565
H  H5  1  0.97370000  0.26610000  0.07420000  1.0 0.0922225565
H  H6  1  0.05810000  0.48390000  0.20760000  1.0 0.0922225565
H  H7  1  0.27630000  0.85050000  0.79240000  1.0 0.0922225565
H  H8  1  0.19190000  0.89950000  0.92580000  1.0 0.0922225565
H  H9  1  0.38690000  0.07730000  0.44280000  1.0 0.0974383258
H  H10  1  0.61550000  0.67270000  0.80960000  1.0 0.0974383258
H  H11  1  0.63450000  0.94410000  0.55720000  1.0 0.0974383258
H  H12  1  0.86310000  0.80590000  0.19040000  1.0 0.0974383258
H  H13  1  0.19410000  0.38450000  0.05720000  1.0 0.0974383258
H  H14  1  0.92270000  0.36550000  0.30960000  1.0 0.0974383258
H  H15  1  0.05590000  0.61310000  0.69040000  1.0 0.0974383258
H  H16  1  0.32730000  0.13690000  0.94280000  1.0 0.0974383258
H  H17  1  0.78870000  0.59990000  0.49720000  1.0 0.0974383258
H  H18  1  0.14730000  0.15010000  0.68880000  1.0 0.0974383258
H  H19  1  0.10270000  0.29150000  0.50280000  1.0 0.0974383258
H  H20  1  0.46130000  0.45850000  0.31120000  1.0 0.0974383258
H  H21  1  0.54150000  0.85270000  0.00280000  1.0 0.0974383258
H  H22  1  0.40010000  0.89730000  0.18880000  1.0 0.0974383258
H  H23  1  0.70850000  0.21130000  0.81120000  1.0 0.0974383258
H  H24  1  0.84990000  0.53870000  0.99720000  1.0 0.0974383258
H  H25  1  0.55000000  0.46020000  0.47640000  1.0 0.0804599125
H  H26  1  0.26620000  0.28980000  0.58980000  1.0 0.0804599125
H  H27  1  0.98380000  0.07360000  0.52360000  1.0 0.0804599125
H  H28  1  0.70000000  0.67640000  0.41020000  1.0 0.0804599125
H  H29  1  0.32360000  0.73380000  0.02360000  1.0 0.0804599125
H  H30  1  0.53980000  0.01620000  0.08980000  1.0 0.0804599125
H  H31  1  0.92640000  0.45000000  0.91020000  1.0 0.0804599125
H  H32  1  0.71020000  0.30000000  0.97640000  1.0 0.0804599125
H  H33  1  0.95050000  0.66830000  0.56080000  1.0 0.108188131
H  H34  1  0.14250000  0.08170000  0.78220000  1.0 0.108188131
H  H35  1  0.10750000  0.38970000  0.43920000  1.0 0.108188131
H  H36  1  0.29950000  0.36030000  0.21780000  1.0 0.108188131
H  H37  1  0.63970000  0.85750000  0.93920000  1.0 0.108188131
H  H38  1  0.33170000  0.89250000  0.28220000  1.0 0.108188131
H  H39  1  0.61030000  0.04950000  0.71780000  1.0 0.108188131
H  H40  1  0.91830000  0.70050000  0.06080000  1.0 0.108188131
H  H41  1  0.20310000  0.82690000  0.57400000  1.0 0.108188131
H  H42  1  0.99710000  0.92310000  0.87620000  1.0 0.108188131
H  H43  1  0.25290000  0.62910000  0.42600000  1.0 0.108188131
H  H44  1  0.04690000  0.12090000  0.12380000  1.0 0.108188131
H  H45  1  0.87910000  0.00290000  0.92600000  1.0 0.108188131
H  H46  1  0.17310000  0.74710000  0.37620000  1.0 0.108188131
H  H47  1  0.37090000  0.79690000  0.62380000  1.0 0.108188131
H  H48  1  0.07690000  0.95310000  0.07400000  1.0 0.108188131
H  H49  1  0.90640000  0.43140000  0.41600000  1.0 0.108188131
H  H50  1  0.23460000  0.31860000  0.97500000  1.0 0.108188131
H  H51  1  0.01540000  0.49040000  0.58400000  1.0 0.108188131
H  H52  1  0.34360000  0.25960000  0.02500000  1.0 0.108188131
H  H53  1  0.74040000  0.76540000  0.08400000  1.0 0.108188131
H  H54  1  0.56860000  0.98460000  0.47500000  1.0 0.108188131
H  H55  1  0.50960000  0.09360000  0.52500000  1.0 0.108188131
H  H56  1  0.68140000  0.65640000  0.91600000  1.0 0.108188131
H  H57  1  0.65410000  0.27410000  0.40080000  1.0 0.108188131
H  H58  1  0.37670000  0.47590000  0.88000000  1.0 0.108188131
H  H59  1  0.87330000  0.25330000  0.59920000  1.0 0.108188131
H  H60  1  0.59590000  0.49670000  0.12000000  1.0 0.108188131
H  H61  1  0.50330000  0.62330000  0.09920000  1.0 0.108188131
H  H62  1  0.72590000  0.12670000  0.38000000  1.0 0.108188131
H  H63  1  0.74670000  0.34590000  0.62000000  1.0 0.108188131
H  H64  1  0.52410000  0.40410000  0.90080000  1.0 0.108188131
H  H65  1  0.37920000  0.24580000  0.56160000  1.0 0.0922225565
H  H66  1  0.56580000  0.50420000  0.63340000  1.0 0.0922225565
H  H67  1  0.68420000  0.81760000  0.43840000  1.0 0.0922225565
H  H68  1  0.87080000  0.93240000  0.36660000  1.0 0.0922225565
H  H69  1  0.06760000  0.43420000  0.93840000  1.0 0.0922225565
H  H70  1  0.75420000  0.31580000  0.13340000  1.0 0.0922225565
H  H71  1  0.18240000  0.62080000  0.86660000  1.0 0.0922225565
H  H72  1  0.49580000  0.12920000  0.06160000  1.0 0.0922225565
H  H73  1  0.64200000  0.40560000  0.57360000  1.0 0.0974383258
H  H74  1  0.41800000  0.34440000  0.73640000  1.0 0.0974383258
H  H75  1  0.83200000  0.06840000  0.42640000  1.0 0.0974383258
H  H76  1  0.60800000  0.68160000  0.26360000  1.0 0.0974383258
H  H77  1  0.31840000  0.58200000  0.92640000  1.0 0.0974383258
H  H78  1  0.59440000  0.16800000  0.23640000  1.0 0.0974383258
H  H79  1  0.93160000  0.35800000  0.76360000  1.0 0.0974383258
H  H80  1  0.65560000  0.39200000  0.07360000  1.0 0.0922225565
H  H81  1  0.56100000  0.30450000  0.36790000  1.0 0.0922225565
H  H82  1  0.31340000  0.44550000  0.75650000  1.0 0.0922225565
H  H83  1  0.93660000  0.19310000  0.63210000  1.0 0.0922225565
H  H84  1  0.68900000  0.55690000  0.24350000  1.0 0.0922225565
H  H85  1  0.44310000  0.68660000  0.13210000  1.0 0.0922225565
H  H86  1  0.69550000  0.06340000  0.25650000  1.0 0.0922225565
H  H87  1  0.80690000  0.43900000  0.74350000  1.0 0.0922225565
H  H88  1  0.55450000  0.31100000  0.86790000  1.0 0.0922225565
H  H89  1  0.29570000  0.14230000  0.35120000  1.0 0.0804599125
H  H90  1  0.45890000  0.60770000  0.65340000  1.0 0.0804599125
H  H91  1  0.79110000  0.94450000  0.64880000  1.0 0.0804599125
H  H92  1  0.95430000  0.80550000  0.34660000  1.0 0.0804599125
H  H93  1  0.19450000  0.54110000  0.14880000  1.0 0.0804599125
H  H94  1  0.85770000  0.20890000  0.15340000  1.0 0.0804599125
H  H95  1  0.05550000  0.70430000  0.84660000  1.0 0.0804599125
H  H96  1  0.39230000  0.04570000  0.85120000  1.0 0.0804599125
C  C1  1  0.28160000  0.07760000  0.44240000  1.0 -0.0089238433
C  C2  1  0.61480000  0.67240000  0.70400000  1.0 -0.0089238433
C  C3  1  0.63520000  0.83920000  0.55760000  1.0 -0.0089238433
C  C4  1  0.96840000  0.91080000  0.29600000  1.0 -0.0089238433
C  C5  1  0.08920000  0.38520000  0.05760000  1.0 -0.0089238433
C  C6  1  0.92240000  0.36480000  0.20400000  1.0 -0.0089238433
C  C7  1  0.16080000  0.71840000  0.79600000  1.0 -0.0089238433
C  C8  1  0.32760000  0.03160000  0.94240000  1.0 -0.0089238433
C  C9  1  0.42310000  0.15810000  0.45100000  1.0 -0.1416149315
C  C10  1  0.54290000  0.59190000  0.76500000  1.0 -0.1416149315
C  C11  1  0.70710000  0.97210000  0.54900000  1.0 -0.1416149315
C  C12  1  0.82690000  0.77790000  0.23500000  1.0 -0.1416149315
C  C13  1  0.22210000  0.45710000  0.04900000  1.0 -0.1416149315
C  C14  1  0.84190000  0.29290000  0.26500000  1.0 -0.1416149315
C  C15  1  0.02790000  0.57690000  0.73500000  1.0 -0.1416149315
C  C16  1  0.40810000  0.17310000  0.95100000  1.0 -0.1416149315
C  C17  1  0.61500000  0.35580000  0.47140000  1.0 0.0393711508
C  C18  1  0.36560000  0.39420000  0.75920000  1.0 0.0393711508
C  C19  1  0.88440000  0.14360000  0.52860000  1.0 0.0393711508
C  C20  1  0.63500000  0.60640000  0.24080000  1.0 0.0393711508
C  C21  1  0.39360000  0.63440000  0.02860000  1.0 0.0393711508
C  C22  1  0.64420000  0.11560000  0.25920000  1.0 0.0393711508
C  C23  1  0.85640000  0.38500000  0.74080000  1.0 0.0393711508
C  C24  1  0.60580000  0.36500000  0.97140000  1.0 0.0393711508
C  C25  1  0.65710000  0.46320000  0.48230000  1.0 -0.0942853595
C  C26  1  0.26910000  0.28680000  0.69390000  1.0 -0.0942853595
C  C27  1  0.98090000  0.17480000  0.51770000  1.0 -0.0942853595
C  C28  1  0.59290000  0.57520000  0.30610000  1.0 -0.0942853595
C  C29  1  0.42480000  0.73090000  0.01770000  1.0 -0.0942853595
C  C30  1  0.53680000  0.01910000  0.19390000  1.0 -0.0942853595
C  C31  1  0.82520000  0.34290000  0.80610000  1.0 -0.0942853595
C  C32  1  0.71320000  0.40710000  0.98230000  1.0 -0.0942853595
C  C33  1  0.51480000  0.38010000  0.47230000  1.0 -0.0208552811
C  C34  1  0.34220000  0.36990000  0.63470000  1.0 -0.0208552811
C  C35  1  0.90780000  0.04250000  0.52770000  1.0 -0.0208552811
C  C36  1  0.73520000  0.70750000  0.36530000  1.0 -0.0208552811
C  C37  1  0.29250000  0.65780000  0.02770000  1.0 -0.0208552811
C  C38  1  0.61990000  0.09220000  0.13470000  1.0 -0.0208552811
C  C39  1  0.95750000  0.48520000  0.86530000  1.0 -0.0208552811
C  C40  1  0.63010000  0.26480000  0.97230000  1.0 -0.0208552811
C  C41  1  0.77750000  0.45700000  0.47930000  1.0 0.0393711508
C  C42  1  0.27230000  0.29300000  0.82050000  1.0 0.0393711508
C  C43  1  0.97770000  0.29820000  0.52070000  1.0 0.0393711508
C  C44  1  0.47250000  0.45180000  0.17950000  1.0 0.0393711508
C  C45  1  0.54820000  0.72770000  0.02070000  1.0 0.0393711508
C  C46  1  0.54300000  0.02230000  0.32050000  1.0 0.0393711508
C  C47  1  0.70180000  0.22250000  0.67950000  1.0 0.0393711508
C  C48  1  0.70700000  0.52750000  0.97930000  1.0 0.0393711508
C  C49  1  0.94230000  0.62100000  0.53070000  1.0 -0.1749864806
C  C50  1  0.15970000  0.12900000  0.82130000  1.0 -0.1755385388
C  C51  1  0.09030000  0.41160000  0.46930000  1.0 -0.1749864806
C  C52  1  0.30770000  0.33840000  0.17870000  1.0 -0.1755385388
C  C53  1  0.66160000  0.84030000  0.96930000  1.0 -0.1749864806
C  C54  1  0.37900000  0.90970000  0.32130000  1.0 -0.1749864806
C  C55  1  0.58840000  0.05770000  0.67870000  1.0 -0.1749864806
C  C56  1  0.87100000  0.69230000  0.03070000  1.0 -0.1749864806
C  C57  1  0.09250000  0.71540000  0.53850000  1.0 -0.1523314778
C  C58  1  0.07310000  0.03460000  0.87710000  1.0 -0.1523314778
C  C59  1  0.17690000  0.55400000  0.46150000  1.0 -0.1523314778
C  C60  1  0.15750000  0.19600000  0.12290000  1.0 -0.1523314778
C  C61  1  0.80400000  0.92690000  0.96150000  1.0 -0.1523314778
C  C62  1  0.28460000  0.82310000  0.37710000  1.0 -0.1523314778
C  C63  1  0.44600000  0.90750000  0.62290000  1.0 -0.1523314778
C  C64  1  0.96540000  0.84250000  0.03850000  1.0 -0.1523314778
C  C65  1  0.08530000  0.65000000  0.49490000  1.0 0.0576429807
C  C66  1  0.09490000  0.10000000  0.93530000  1.0 0.0576429807
C  C67  1  0.15510000  0.59040000  0.50510000  1.0 0.0576429807
C  C68  1  0.16470000  0.15960000  0.06470000  1.0 0.0576429807
C  C69  1  0.84040000  0.90510000  0.00510000  1.0 0.0576429807
C  C70  1  0.35000000  0.84490000  0.43530000  1.0 0.0576429807
C  C71  1  0.40960000  0.91470000  0.56470000  1.0 0.0576429807
C  C72  1  0.90000000  0.83530000  0.99490000  1.0 0.0576429807
C  C73  1  0.91670000  0.48180000  0.44490000  1.0 -0.1569203277
C  C74  1  0.21310000  0.26820000  0.93490000  1.0 -0.1569203277
C  C75  1  0.03690000  0.47180000  0.55510000  1.0 -0.1569203277
C  C76  1  0.33333333  0.27820000  0.06510000  1.0 -0.1569203277
C  C77  1  0.72180000  0.78690000  0.05510000  1.0 -0.1569203277
C  C78  1  0.51820000  0.96310000  0.43490000  1.0 -0.1569203277
C  C79  1  0.52820000  0.08330000  0.56510000  1.0 -0.1569203277
C  C80  1  0.73180000  0.66666667  0.94490000  1.0 -0.1569203277
C  C81  1  0.76550000  0.38650000  0.43600000  1.0 -0.1749864806
C  C82  1  0.29950000  0.36350000  0.87900000  1.0 -0.1749864806
C  C83  1  0.95050000  0.32950000  0.56400000  1.0 -0.1749864806
C  C84  1  0.48450000  0.42050000  0.12100000  1.0 -0.1749864806
C  C85  1  0.57950000  0.70050000  0.06400000  1.0 -0.1749864806
C  C86  1  0.61350000  0.04950000  0.37900000  1.0 -0.1749864806
C  C87  1  0.67050000  0.23450000  0.62100000  1.0 -0.1749864806
C  C88  1  0.63650000  0.51550000  0.93600000  1.0 -0.1749864806
C  C89  1  0.25000000  0.75000000  0.50000000  1.0 -0.0208552811
C  C90  1  0.00000000  0.00000000  0.00000000  1.0 -0.0208552811
C  C91  1  0.41450000  0.25550000  0.52200000  1.0 0.0007761651
C  C92  1  0.51650000  0.49450000  0.65900000  1.0 0.0007761651
C  C93  1  0.73350000  0.89250000  0.47800000  1.0 0.0007761651
C  C94  1  0.83550000  0.85750000  0.34100000  1.0 0.0007761651
C  C95  1  0.14250000  0.48350000  0.97800000  1.0 0.0007761651
C  C96  1  0.74450000  0.26650000  0.15900000  1.0 0.0007761651
C  C97  1  0.10750000  0.58550000  0.84100000  1.0 0.0007761651
C  C98  1  0.50550000  0.16450000  0.02200000  1.0 0.0007761651
C  C99  1  0.57130000  0.34940000  0.52870000  1.0 -0.0942853595
C  C100  1  0.42930000  0.40060000  0.72190000  1.0 -0.0942853595
C  C101  1  0.82070000  0.04260000  0.47130000  1.0 -0.0942853595
C  C102  1  0.67870000  0.70740000  0.27810000  1.0 -0.0942853595
C  C103  1  0.29260000  0.57070000  0.97130000  1.0 -0.0942853595
C  C104  1  0.65060000  0.17930000  0.22190000  1.0 -0.0942853595
C  C105  1  0.95740000  0.42870000  0.77810000  1.0 -0.0942853595
C  C106  1  0.59940000  0.32130000  0.02870000  1.0 -0.0942853595
C  C107  1  0.52250000  0.28940000  0.40790000  1.0 -0.0796536345
C  C108  1  0.36850000  0.46060000  0.73310000  1.0 -0.0796536345
C  C109  1  0.88150000  0.11460000  0.59210000  1.0 -0.0796536345
C  C110  1  0.72750000  0.63540000  0.26690000  1.0 -0.0796536345
C  C111  1  0.36460000  0.63150000  0.09210000  1.0 -0.0796536345
C  C112  1  0.71060000  0.11850000  0.23310000  1.0 -0.0796536345
C  C113  1  0.88540000  0.47750000  0.76690000  1.0 -0.0796536345
C  C114  1  0.53940000  0.27250000  0.90790000  1.0 -0.0796536345
C  C115  1  0.36310000  0.19290000  0.39600000  1.0 -0.0336180822
C  C116  1  0.45310000  0.55710000  0.67020000  1.0 -0.0336180822
C  C117  1  0.79690000  0.96710000  0.60400000  1.0 -0.0336180822
C  C118  1  0.88690000  0.78290000  0.32980000  1.0 -0.0336180822
C  C119  1  0.21710000  0.54690000  0.10400000  1.0 -0.0336180822
C  C120  1  0.80710000  0.20310000  0.17020000  1.0 -0.0336180822
C  C121  1  0.03290000  0.63690000  0.82980000  1.0 -0.0336180822
C  C122  1  0.44290000  0.11310000  0.89600000  1.0 -0.0336180822
I  I1  1  0.32193000  0.37500000  0.44693000  1.0 -0.4936676164
I  I2  1  0.92807000  0.87500000  0.55307000  1.0 -0.4936676164
I  I3  1  0.12500000  0.67807000  0.05307000  1.0 -0.4936676164
I  I4  1  0.62500000  0.07193000  0.94693000  1.0 -0.4936676164
N  N1  1  0.32840000  0.18770000  0.45690000  1.0 0.0393711508
N  N2  1  0.51920000  0.56230000  0.64070000  1.0 0.0393711508
N  N3  1  0.73080000  0.87150000  0.54310000  1.0 0.0393711508
N  N4  1  0.92160000  0.87850000  0.35930000  1.0 0.0393711508
N  N5  1  0.12150000  0.48080000  0.04310000  1.0 0.0393711508
N  N6  1  0.81230000  0.26920000  0.14070000  1.0 0.0393711508
N  N7  1  0.12850000  0.67160000  0.85930000  1.0 0.0393711508
N  N8  1  0.43770000  0.07840000  0.95690000  1.0 0.0393711508
